data_00001
_audit_creation_method   'DISCUS'

_data_chemical_name_common 'BaTiO3 (P4mm)'

_cell_length_a             56.1610
_cell_length_b             56.1610
_cell_length_c             56.7980
_cell_angle_alpha     90.0000
_cell_angle_beta      90.0000
_cell_angle_gamma     90.0000

_symmetry_space_group_name_H-M   'P1              '

loop_
_atom_site_label
_atom_site_fract_x
_atom_site_fract_y
_atom_site_fract_z
_atom_site_u_iso_or_equiv
O         0.393571    0.393571    0.000714     0.002533
O         0.465000    0.393571    0.000714     0.002533
O         0.393571    0.465000    0.000714     0.002533
O         0.465000    0.465000    0.000714     0.002533
O         0.393571    0.179286    0.072143     0.002533
O         0.465000    0.179286    0.072143     0.002533
O         0.250714    0.250714    0.072143     0.002533
O         0.322143    0.250714    0.072143     0.002533
TI        0.393571    0.250714    0.038571     0.002533
O         0.393571    0.250714    0.072143     0.002533
O         0.357857    0.250714    0.037000     0.002533
TI        0.465000    0.250714    0.038571     0.002533
O         0.465000    0.250714    0.072143     0.002533
O         0.429286    0.250714    0.037000     0.002533
O         0.536429    0.250714    0.072143     0.002533
O         0.500714    0.250714    0.037000     0.002533
O         0.607857    0.250714    0.072143     0.002533
O         0.250714    0.322143    0.072143     0.002533
TI        0.322143    0.322143    0.038571     0.002533
O         0.322143    0.322143    0.072143     0.002533
O         0.322143    0.286429    0.037000     0.002533
O         0.286429    0.322143    0.037000     0.002533
TI        0.393571    0.322143    0.038571     0.002533
O         0.393571    0.322143    0.072143     0.002533
O         0.393571    0.286429    0.037000     0.002533
O         0.357857    0.322143    0.037000     0.002533
TI        0.465000    0.322143    0.038571     0.002533
O         0.465000    0.322143    0.072143     0.002533
O         0.465000    0.286429    0.037000     0.002533
O         0.429286    0.322143    0.037000     0.002533
TI        0.536429    0.322143    0.038571     0.002533
O         0.536429    0.322143    0.072143     0.002533
O         0.536429    0.286429    0.037000     0.002533
O         0.500714    0.322143    0.037000     0.002533
O         0.607857    0.322143    0.072143     0.002533
O         0.572143    0.322143    0.037000     0.002533
O         0.179286    0.393571    0.072143     0.002533
TI        0.250714    0.393571    0.038571     0.002533
O         0.250714    0.393571    0.072143     0.002533
O         0.250714    0.357857    0.037000     0.002533
TI        0.322143    0.393571    0.038571     0.002533
O         0.322143    0.393571    0.072143     0.002533
O         0.322143    0.357857    0.037000     0.002533
O         0.286429    0.393571    0.037000     0.002533
BA        0.357857    0.357857    0.002143     0.002533
TI        0.393571    0.393571    0.038571     0.002533
O         0.393571    0.393571    0.072143     0.002533
O         0.393571    0.357857    0.037000     0.002533
O         0.357857    0.393571    0.037000     0.002533
BA        0.429286    0.357857    0.002143     0.002533
TI        0.465000    0.393571    0.038571     0.002533
O         0.465000    0.393571    0.072143     0.002533
O         0.465000    0.357857    0.037000     0.002533
O         0.429286    0.393571    0.037000     0.002533
BA        0.500714    0.357857    0.002143     0.002533
TI        0.536429    0.393571    0.038571     0.002533
O         0.536429    0.393571    0.072143     0.002533
O         0.536429    0.357857    0.037000     0.002533
O         0.500714    0.393571    0.037000     0.002533
TI        0.607857    0.393571    0.038571     0.002533
O         0.607857    0.393571    0.072143     0.002533
O         0.607857    0.357857    0.037000     0.002533
O         0.572143    0.393571    0.037000     0.002533
O         0.679286    0.393571    0.072143     0.002533
O         0.179286    0.465000    0.072143     0.002533
TI        0.250714    0.465000    0.038571     0.002533
O         0.250714    0.465000    0.072143     0.002533
O         0.250714    0.429286    0.037000     0.002533
TI        0.322143    0.465000    0.038571     0.002533
O         0.322143    0.465000    0.072143     0.002533
O         0.322143    0.429286    0.037000     0.002533
O         0.286429    0.465000    0.037000     0.002533
BA        0.357857    0.429286    0.002143     0.002533
TI        0.393571    0.465000    0.038571     0.002533
O         0.393571    0.465000    0.072143     0.002533
O         0.393571    0.429286    0.037000     0.002533
O         0.357857    0.465000    0.037000     0.002533
BA        0.429286    0.429286    0.002143     0.002533
TI        0.465000    0.465000    0.038571     0.002533
O         0.465000    0.465000    0.072143     0.002533
O         0.465000    0.429286    0.037000     0.002533
O         0.429286    0.465000    0.037000     0.002533
BA        0.500714    0.429286    0.002143     0.002533
TI        0.536429    0.465000    0.038571     0.002533
O         0.536429    0.465000    0.072143     0.002533
O         0.536429    0.429286    0.037000     0.002533
O         0.500714    0.465000    0.037000     0.002533
TI        0.607857    0.465000    0.038571     0.002533
O         0.607857    0.465000    0.072143     0.002533
O         0.607857    0.429286    0.037000     0.002533
O         0.572143    0.465000    0.037000     0.002533
O         0.679286    0.465000    0.072143     0.002533
O         0.250714    0.536429    0.072143     0.002533
O         0.250714    0.500714    0.037000     0.002533
TI        0.322143    0.536429    0.038571     0.002533
O         0.322143    0.536429    0.072143     0.002533
O         0.322143    0.500714    0.037000     0.002533
O         0.286429    0.536429    0.037000     0.002533
BA        0.357857    0.500714    0.002143     0.002533
TI        0.393571    0.536429    0.038571     0.002533
O         0.393571    0.536429    0.072143     0.002533
O         0.393571    0.500714    0.037000     0.002533
O         0.357857    0.536429    0.037000     0.002533
BA        0.429286    0.500714    0.002143     0.002533
TI        0.465000    0.536429    0.038571     0.002533
O         0.465000    0.536429    0.072143     0.002533
O         0.465000    0.500714    0.037000     0.002533
O         0.429286    0.536429    0.037000     0.002533
BA        0.500714    0.500714    0.002143     0.002533
TI        0.536429    0.536429    0.038571     0.002533
O         0.536429    0.536429    0.072143     0.002533
O         0.536429    0.500714    0.037000     0.002533
O         0.500714    0.536429    0.037000     0.002533
O         0.607857    0.536429    0.072143     0.002533
O         0.607857    0.500714    0.037000     0.002533
O         0.572143    0.536429    0.037000     0.002533
O         0.250714    0.607857    0.072143     0.002533
O         0.322143    0.607857    0.072143     0.002533
O         0.322143    0.572143    0.037000     0.002533
TI        0.393571    0.607857    0.038571     0.002533
O         0.393571    0.607857    0.072143     0.002533
O         0.393571    0.572143    0.037000     0.002533
O         0.357857    0.607857    0.037000     0.002533
TI        0.465000    0.607857    0.038571     0.002533
O         0.465000    0.607857    0.072143     0.002533
O         0.465000    0.572143    0.037000     0.002533
O         0.429286    0.607857    0.037000     0.002533
O         0.536429    0.607857    0.072143     0.002533
O         0.536429    0.572143    0.037000     0.002533
O         0.500714    0.607857    0.037000     0.002533
O         0.607857    0.607857    0.072143     0.002533
O         0.393571    0.679286    0.072143     0.002533
O         0.465000    0.679286    0.072143     0.002533
O         0.393571    0.107857    0.143571     0.002533
O         0.465000    0.107857    0.143571     0.002533
O         0.250714    0.179286    0.143571     0.002533
TI        0.322143    0.179286    0.110000     0.002533
O         0.322143    0.179286    0.143571     0.002533
O         0.286429    0.179286    0.108429     0.002533
TI        0.393571    0.179286    0.110000     0.002533
O         0.393571    0.179286    0.143571     0.002533
O         0.393571    0.143571    0.108429     0.002533
O         0.357857    0.179286    0.108429     0.002533
TI        0.465000    0.179286    0.110000     0.002533
O         0.465000    0.179286    0.143571     0.002533
O         0.465000    0.143571    0.108429     0.002533
O         0.429286    0.179286    0.108429     0.002533
TI        0.536429    0.179286    0.110000     0.002533
O         0.536429    0.179286    0.143571     0.002533
O         0.500714    0.179286    0.108429     0.002533
O         0.607857    0.179286    0.143571     0.002533
O         0.572143    0.179286    0.108429     0.002533
O         0.179286    0.250714    0.143571     0.002533
TI        0.250714    0.250714    0.110000     0.002533
O         0.250714    0.250714    0.143571     0.002533
O         0.250714    0.215000    0.108429     0.002533
O         0.215000    0.250714    0.108429     0.002533
BA        0.286429    0.215000    0.073572     0.002533
TI        0.322143    0.250714    0.110000     0.002533
O         0.322143    0.250714    0.143571     0.002533
O         0.322143    0.215000    0.108429     0.002533
O         0.286429    0.250714    0.108429     0.002533
BA        0.357857    0.215000    0.073572     0.002533
TI        0.393571    0.250714    0.110000     0.002533
O         0.393571    0.250714    0.143571     0.002533
O         0.393571    0.215000    0.108429     0.002533
O         0.357857    0.250714    0.108429     0.002533
BA        0.429286    0.215000    0.073572     0.002533
TI        0.465000    0.250714    0.110000     0.002533
O         0.465000    0.250714    0.143571     0.002533
O         0.465000    0.215000    0.108429     0.002533
O         0.429286    0.250714    0.108429     0.002533
BA        0.500714    0.215000    0.073572     0.002533
TI        0.536429    0.250714    0.110000     0.002533
O         0.536429    0.250714    0.143571     0.002533
O         0.536429    0.215000    0.108429     0.002533
O         0.500714    0.250714    0.108429     0.002533
BA        0.572143    0.215000    0.073572     0.002533
TI        0.607857    0.250714    0.110000     0.002533
O         0.607857    0.250714    0.143571     0.002533
O         0.607857    0.215000    0.108429     0.002533
O         0.572143    0.250714    0.108429     0.002533
O         0.679286    0.250714    0.143571     0.002533
O         0.643571    0.250714    0.108429     0.002533
TI        0.179286    0.322143    0.110000     0.002533
O         0.179286    0.322143    0.143571     0.002533
O         0.179286    0.286429    0.108429     0.002533
BA        0.215000    0.286429    0.073572     0.002533
TI        0.250714    0.322143    0.110000     0.002533
O         0.250714    0.322143    0.143571     0.002533
O         0.250714    0.286429    0.108429     0.002533
O         0.215000    0.322143    0.108429     0.002533
BA        0.286429    0.286429    0.073572     0.002533
TI        0.322143    0.322143    0.110000     0.002533
O         0.322143    0.322143    0.143571     0.002533
O         0.322143    0.286429    0.108429     0.002533
O         0.286429    0.322143    0.108429     0.002533
BA        0.357857    0.286429    0.073572     0.002533
TI        0.393571    0.322143    0.110000     0.002533
O         0.393571    0.322143    0.143571     0.002533
O         0.393571    0.286429    0.108429     0.002533
O         0.357857    0.322143    0.108429     0.002533
BA        0.429286    0.286429    0.073572     0.002533
TI        0.465000    0.322143    0.110000     0.002533
O         0.465000    0.322143    0.143571     0.002533
O         0.465000    0.286429    0.108429     0.002533
O         0.429286    0.322143    0.108429     0.002533
BA        0.500714    0.286429    0.073572     0.002533
TI        0.536429    0.322143    0.110000     0.002533
O         0.536429    0.322143    0.143571     0.002533
O         0.536429    0.286429    0.108429     0.002533
O         0.500714    0.322143    0.108429     0.002533
BA        0.572143    0.286429    0.073572     0.002533
TI        0.607857    0.322143    0.110000     0.002533
O         0.607857    0.322143    0.143571     0.002533
O         0.607857    0.286429    0.108429     0.002533
O         0.572143    0.322143    0.108429     0.002533
BA        0.643571    0.286429    0.073572     0.002533
TI        0.679286    0.322143    0.110000     0.002533
O         0.679286    0.322143    0.143571     0.002533
O         0.679286    0.286429    0.108429     0.002533
O         0.643571    0.322143    0.108429     0.002533
O         0.107857    0.393571    0.143571     0.002533
TI        0.179286    0.393571    0.110000     0.002533
O         0.179286    0.393571    0.143571     0.002533
O         0.179286    0.357857    0.108429     0.002533
O         0.143571    0.393571    0.108429     0.002533
BA        0.215000    0.357857    0.073572     0.002533
TI        0.250714    0.393571    0.110000     0.002533
O         0.250714    0.393571    0.143571     0.002533
O         0.250714    0.357857    0.108429     0.002533
O         0.215000    0.393571    0.108429     0.002533
BA        0.286429    0.357857    0.073572     0.002533
TI        0.322143    0.393571    0.110000     0.002533
O         0.322143    0.393571    0.143571     0.002533
O         0.322143    0.357857    0.108429     0.002533
O         0.286429    0.393571    0.108429     0.002533
BA        0.357857    0.357857    0.073572     0.002533
TI        0.393571    0.393571    0.110000     0.002533
O         0.393571    0.393571    0.143571     0.002533
O         0.393571    0.357857    0.108429     0.002533
O         0.357857    0.393571    0.108429     0.002533
BA        0.429286    0.357857    0.073572     0.002533
TI        0.465000    0.393571    0.110000     0.002533
O         0.465000    0.393571    0.143571     0.002533
O         0.465000    0.357857    0.108429     0.002533
O         0.429286    0.393571    0.108429     0.002533
BA        0.500714    0.357857    0.073572     0.002533
TI        0.536429    0.393571    0.110000     0.002533
O         0.536429    0.393571    0.143571     0.002533
O         0.536429    0.357857    0.108429     0.002533
O         0.500714    0.393571    0.108429     0.002533
BA        0.572143    0.357857    0.073572     0.002533
TI        0.607857    0.393571    0.110000     0.002533
O         0.607857    0.393571    0.143571     0.002533
O         0.607857    0.357857    0.108429     0.002533
O         0.572143    0.393571    0.108429     0.002533
BA        0.643571    0.357857    0.073572     0.002533
TI        0.679286    0.393571    0.110000     0.002533
O         0.679286    0.393571    0.143571     0.002533
O         0.679286    0.357857    0.108429     0.002533
O         0.643571    0.393571    0.108429     0.002533
O         0.750714    0.393571    0.143571     0.002533
O         0.715000    0.393571    0.108429     0.002533
O         0.107857    0.465000    0.143571     0.002533
TI        0.179286    0.465000    0.110000     0.002533
O         0.179286    0.465000    0.143571     0.002533
O         0.179286    0.429286    0.108429     0.002533
O         0.143571    0.465000    0.108429     0.002533
BA        0.215000    0.429286    0.073572     0.002533
TI        0.250714    0.465000    0.110000     0.002533
O         0.250714    0.465000    0.143571     0.002533
O         0.250714    0.429286    0.108429     0.002533
O         0.215000    0.465000    0.108429     0.002533
BA        0.286429    0.429286    0.073572     0.002533
TI        0.322143    0.465000    0.110000     0.002533
O         0.322143    0.465000    0.143571     0.002533
O         0.322143    0.429286    0.108429     0.002533
O         0.286429    0.465000    0.108429     0.002533
BA        0.357857    0.429286    0.073572     0.002533
TI        0.393571    0.465000    0.110000     0.002533
O         0.393571    0.465000    0.143571     0.002533
O         0.393571    0.429286    0.108429     0.002533
O         0.357857    0.465000    0.108429     0.002533
BA        0.429286    0.429286    0.073572     0.002533
TI        0.465000    0.465000    0.110000     0.002533
O         0.465000    0.465000    0.143571     0.002533
O         0.465000    0.429286    0.108429     0.002533
O         0.429286    0.465000    0.108429     0.002533
BA        0.500714    0.429286    0.073572     0.002533
TI        0.536429    0.465000    0.110000     0.002533
O         0.536429    0.465000    0.143571     0.002533
O         0.536429    0.429286    0.108429     0.002533
O         0.500714    0.465000    0.108429     0.002533
BA        0.572143    0.429286    0.073572     0.002533
TI        0.607857    0.465000    0.110000     0.002533
O         0.607857    0.465000    0.143571     0.002533
O         0.607857    0.429286    0.108429     0.002533
O         0.572143    0.465000    0.108429     0.002533
BA        0.643571    0.429286    0.073572     0.002533
TI        0.679286    0.465000    0.110000     0.002533
O         0.679286    0.465000    0.143571     0.002533
O         0.679286    0.429286    0.108429     0.002533
O         0.643571    0.465000    0.108429     0.002533
O         0.750714    0.465000    0.143571     0.002533
O         0.715000    0.465000    0.108429     0.002533
TI        0.179286    0.536429    0.110000     0.002533
O         0.179286    0.536429    0.143571     0.002533
O         0.179286    0.500714    0.108429     0.002533
BA        0.215000    0.500714    0.073572     0.002533
TI        0.250714    0.536429    0.110000     0.002533
O         0.250714    0.536429    0.143571     0.002533
O         0.250714    0.500714    0.108429     0.002533
O         0.215000    0.536429    0.108429     0.002533
BA        0.286429    0.500714    0.073572     0.002533
TI        0.322143    0.536429    0.110000     0.002533
O         0.322143    0.536429    0.143571     0.002533
O         0.322143    0.500714    0.108429     0.002533
O         0.286429    0.536429    0.108429     0.002533
BA        0.357857    0.500714    0.073572     0.002533
TI        0.393571    0.536429    0.110000     0.002533
O         0.393571    0.536429    0.143571     0.002533
O         0.393571    0.500714    0.108429     0.002533
O         0.357857    0.536429    0.108429     0.002533
BA        0.429286    0.500714    0.073572     0.002533
TI        0.465000    0.536429    0.110000     0.002533
O         0.465000    0.536429    0.143571     0.002533
O         0.465000    0.500714    0.108429     0.002533
O         0.429286    0.536429    0.108429     0.002533
BA        0.500714    0.500714    0.073572     0.002533
TI        0.536429    0.536429    0.110000     0.002533
O         0.536429    0.536429    0.143571     0.002533
O         0.536429    0.500714    0.108429     0.002533
O         0.500714    0.536429    0.108429     0.002533
BA        0.572143    0.500714    0.073572     0.002533
TI        0.607857    0.536429    0.110000     0.002533
O         0.607857    0.536429    0.143571     0.002533
O         0.607857    0.500714    0.108429     0.002533
O         0.572143    0.536429    0.108429     0.002533
BA        0.643571    0.500714    0.073572     0.002533
TI        0.679286    0.536429    0.110000     0.002533
O         0.679286    0.536429    0.143571     0.002533
O         0.679286    0.500714    0.108429     0.002533
O         0.643571    0.536429    0.108429     0.002533
O         0.179286    0.607857    0.143571     0.002533
O         0.179286    0.572143    0.108429     0.002533
BA        0.215000    0.572143    0.073572     0.002533
TI        0.250714    0.607857    0.110000     0.002533
O         0.250714    0.607857    0.143571     0.002533
O         0.250714    0.572143    0.108429     0.002533
O         0.215000    0.607857    0.108429     0.002533
BA        0.286429    0.572143    0.073572     0.002533
TI        0.322143    0.607857    0.110000     0.002533
O         0.322143    0.607857    0.143571     0.002533
O         0.322143    0.572143    0.108429     0.002533
O         0.286429    0.607857    0.108429     0.002533
BA        0.357857    0.572143    0.073572     0.002533
TI        0.393571    0.607857    0.110000     0.002533
O         0.393571    0.607857    0.143571     0.002533
O         0.393571    0.572143    0.108429     0.002533
O         0.357857    0.607857    0.108429     0.002533
BA        0.429286    0.572143    0.073572     0.002533
TI        0.465000    0.607857    0.110000     0.002533
O         0.465000    0.607857    0.143571     0.002533
O         0.465000    0.572143    0.108429     0.002533
O         0.429286    0.607857    0.108429     0.002533
BA        0.500714    0.572143    0.073572     0.002533
TI        0.536429    0.607857    0.110000     0.002533
O         0.536429    0.607857    0.143571     0.002533
O         0.536429    0.572143    0.108429     0.002533
O         0.500714    0.607857    0.108429     0.002533
BA        0.572143    0.572143    0.073572     0.002533
TI        0.607857    0.607857    0.110000     0.002533
O         0.607857    0.607857    0.143571     0.002533
O         0.607857    0.572143    0.108429     0.002533
O         0.572143    0.607857    0.108429     0.002533
BA        0.643571    0.572143    0.073572     0.002533
O         0.679286    0.607857    0.143571     0.002533
O         0.679286    0.572143    0.108429     0.002533
O         0.643571    0.607857    0.108429     0.002533
O         0.250714    0.679286    0.143571     0.002533
O         0.250714    0.643571    0.108429     0.002533
BA        0.286429    0.643571    0.073572     0.002533
TI        0.322143    0.679286    0.110000     0.002533
O         0.322143    0.679286    0.143571     0.002533
O         0.322143    0.643571    0.108429     0.002533
O         0.286429    0.679286    0.108429     0.002533
BA        0.357857    0.643571    0.073572     0.002533
TI        0.393571    0.679286    0.110000     0.002533
O         0.393571    0.679286    0.143571     0.002533
O         0.393571    0.643571    0.108429     0.002533
O         0.357857    0.679286    0.108429     0.002533
BA        0.429286    0.643571    0.073572     0.002533
TI        0.465000    0.679286    0.110000     0.002533
O         0.465000    0.679286    0.143571     0.002533
O         0.465000    0.643571    0.108429     0.002533
O         0.429286    0.679286    0.108429     0.002533
BA        0.500714    0.643571    0.073572     0.002533
TI        0.536429    0.679286    0.110000     0.002533
O         0.536429    0.679286    0.143571     0.002533
O         0.536429    0.643571    0.108429     0.002533
O         0.500714    0.679286    0.108429     0.002533
BA        0.572143    0.643571    0.073572     0.002533
O         0.607857    0.679286    0.143571     0.002533
O         0.607857    0.643571    0.108429     0.002533
O         0.572143    0.679286    0.108429     0.002533
O         0.393571    0.750714    0.143571     0.002533
O         0.393571    0.715000    0.108429     0.002533
O         0.465000    0.750714    0.143571     0.002533
O         0.465000    0.715000    0.108429     0.002533
O         0.250714    0.107857    0.215000     0.002533
TI        0.322143    0.107857    0.181429     0.002533
O         0.322143    0.107857    0.215000     0.002533
O         0.286429    0.107857    0.179857     0.002533
TI        0.393571    0.107857    0.181429     0.002533
O         0.393571    0.107857    0.215000     0.002533
O         0.393571    0.072143    0.179857     0.002533
O         0.357857    0.107857    0.179857     0.002533
TI        0.465000    0.107857    0.181429     0.002533
O         0.465000    0.107857    0.215000     0.002533
O         0.465000    0.072143    0.179857     0.002533
O         0.429286    0.107857    0.179857     0.002533
TI        0.536429    0.107857    0.181429     0.002533
O         0.536429    0.107857    0.215000     0.002533
O         0.500714    0.107857    0.179857     0.002533
O         0.607857    0.107857    0.215000     0.002533
O         0.572143    0.107857    0.179857     0.002533
TI        0.179286    0.179286    0.181429     0.002533
O         0.179286    0.179286    0.215000     0.002533
TI        0.250714    0.179286    0.181429     0.002533
O         0.250714    0.179286    0.215000     0.002533
O         0.250714    0.143571    0.179857     0.002533
O         0.215000    0.179286    0.179857     0.002533
BA        0.286429    0.143571    0.145000     0.002533
TI        0.322143    0.179286    0.181429     0.002533
O         0.322143    0.179286    0.215000     0.002533
O         0.322143    0.143571    0.179857     0.002533
O         0.286429    0.179286    0.179857     0.002533
BA        0.357857    0.143571    0.145000     0.002533
TI        0.393571    0.179286    0.181429     0.002533
O         0.393571    0.179286    0.215000     0.002533
O         0.393571    0.143571    0.179857     0.002533
O         0.357857    0.179286    0.179857     0.002533
BA        0.429286    0.143571    0.145000     0.002533
TI        0.465000    0.179286    0.181429     0.002533
O         0.465000    0.179286    0.215000     0.002533
O         0.465000    0.143571    0.179857     0.002533
O         0.429286    0.179286    0.179857     0.002533
BA        0.500714    0.143571    0.145000     0.002533
TI        0.536429    0.179286    0.181429     0.002533
O         0.536429    0.179286    0.215000     0.002533
O         0.536429    0.143571    0.179857     0.002533
O         0.500714    0.179286    0.179857     0.002533
BA        0.572143    0.143571    0.145000     0.002533
TI        0.607857    0.179286    0.181429     0.002533
O         0.607857    0.179286    0.215000     0.002533
O         0.607857    0.143571    0.179857     0.002533
O         0.572143    0.179286    0.179857     0.002533
TI        0.679286    0.179286    0.181429     0.002533
O         0.679286    0.179286    0.215000     0.002533
O         0.643571    0.179286    0.179857     0.002533
O         0.107857    0.250714    0.215000     0.002533
TI        0.179286    0.250714    0.181429     0.002533
O         0.179286    0.250714    0.215000     0.002533
O         0.179286    0.215000    0.179857     0.002533
O         0.143571    0.250714    0.179857     0.002533
BA        0.215000    0.215000    0.145000     0.002533
TI        0.250714    0.250714    0.181429     0.002533
O         0.250714    0.250714    0.215000     0.002533
O         0.250714    0.215000    0.179857     0.002533
O         0.215000    0.250714    0.179857     0.002533
BA        0.286429    0.215000    0.145000     0.002533
TI        0.322143    0.250714    0.181429     0.002533
O         0.322143    0.250714    0.215000     0.002533
O         0.322143    0.215000    0.179857     0.002533
O         0.286429    0.250714    0.179857     0.002533
BA        0.357857    0.215000    0.145000     0.002533
TI        0.393571    0.250714    0.181429     0.002533
O         0.393571    0.250714    0.215000     0.002533
O         0.393571    0.215000    0.179857     0.002533
O         0.357857    0.250714    0.179857     0.002533
BA        0.429286    0.215000    0.145000     0.002533
TI        0.465000    0.250714    0.181429     0.002533
O         0.465000    0.250714    0.215000     0.002533
O         0.465000    0.215000    0.179857     0.002533
O         0.429286    0.250714    0.179857     0.002533
BA        0.500714    0.215000    0.145000     0.002533
TI        0.536429    0.250714    0.181429     0.002533
O         0.536429    0.250714    0.215000     0.002533
O         0.536429    0.215000    0.179857     0.002533
O         0.500714    0.250714    0.179857     0.002533
BA        0.572143    0.215000    0.145000     0.002533
TI        0.607857    0.250714    0.181429     0.002533
O         0.607857    0.250714    0.215000     0.002533
O         0.607857    0.215000    0.179857     0.002533
O         0.572143    0.250714    0.179857     0.002533
BA        0.643571    0.215000    0.145000     0.002533
TI        0.679286    0.250714    0.181429     0.002533
O         0.679286    0.250714    0.215000     0.002533
O         0.679286    0.215000    0.179857     0.002533
O         0.643571    0.250714    0.179857     0.002533
O         0.750714    0.250714    0.215000     0.002533
O         0.715000    0.250714    0.179857     0.002533
TI        0.107857    0.322143    0.181429     0.002533
O         0.107857    0.322143    0.215000     0.002533
O         0.107857    0.286429    0.179857     0.002533
BA        0.143571    0.286429    0.145000     0.002533
TI        0.179286    0.322143    0.181429     0.002533
O         0.179286    0.322143    0.215000     0.002533
O         0.179286    0.286429    0.179857     0.002533
O         0.143571    0.322143    0.179857     0.002533
BA        0.215000    0.286429    0.145000     0.002533
TI        0.250714    0.322143    0.181429     0.002533
O         0.250714    0.322143    0.215000     0.002533
O         0.250714    0.286429    0.179857     0.002533
O         0.215000    0.322143    0.179857     0.002533
BA        0.286429    0.286429    0.145000     0.002533
TI        0.322143    0.322143    0.181429     0.002533
O         0.322143    0.322143    0.215000     0.002533
O         0.322143    0.286429    0.179857     0.002533
O         0.286429    0.322143    0.179857     0.002533
BA        0.357857    0.286429    0.145000     0.002533
TI        0.393571    0.322143    0.181429     0.002533
O         0.393571    0.322143    0.215000     0.002533
O         0.393571    0.286429    0.179857     0.002533
O         0.357857    0.322143    0.179857     0.002533
BA        0.429286    0.286429    0.145000     0.002533
TI        0.465000    0.322143    0.181429     0.002533
O         0.465000    0.322143    0.215000     0.002533
O         0.465000    0.286429    0.179857     0.002533
O         0.429286    0.322143    0.179857     0.002533
BA        0.500714    0.286429    0.145000     0.002533
TI        0.536429    0.322143    0.181429     0.002533
O         0.536429    0.322143    0.215000     0.002533
O         0.536429    0.286429    0.179857     0.002533
O         0.500714    0.322143    0.179857     0.002533
BA        0.572143    0.286429    0.145000     0.002533
TI        0.607857    0.322143    0.181429     0.002533
O         0.607857    0.322143    0.215000     0.002533
O         0.607857    0.286429    0.179857     0.002533
O         0.572143    0.322143    0.179857     0.002533
BA        0.643571    0.286429    0.145000     0.002533
TI        0.679286    0.322143    0.181429     0.002533
O         0.679286    0.322143    0.215000     0.002533
O         0.679286    0.286429    0.179857     0.002533
O         0.643571    0.322143    0.179857     0.002533
BA        0.715000    0.286429    0.145000     0.002533
TI        0.750714    0.322143    0.181429     0.002533
O         0.750714    0.322143    0.215000     0.002533
O         0.750714    0.286429    0.179857     0.002533
O         0.715000    0.322143    0.179857     0.002533
TI        0.107857    0.393571    0.181429     0.002533
O         0.107857    0.393571    0.215000     0.002533
O         0.107857    0.357857    0.179857     0.002533
O         0.072143    0.393571    0.179857     0.002533
BA        0.143571    0.357857    0.145000     0.002533
TI        0.179286    0.393571    0.181429     0.002533
O         0.179286    0.393571    0.215000     0.002533
O         0.179286    0.357857    0.179857     0.002533
O         0.143571    0.393571    0.179857     0.002533
BA        0.215000    0.357857    0.145000     0.002533
TI        0.250714    0.393571    0.181429     0.002533
O         0.250714    0.393571    0.215000     0.002533
O         0.250714    0.357857    0.179857     0.002533
O         0.215000    0.393571    0.179857     0.002533
BA        0.286429    0.357857    0.145000     0.002533
TI        0.322143    0.393571    0.181429     0.002533
O         0.322143    0.393571    0.215000     0.002533
O         0.322143    0.357857    0.179857     0.002533
O         0.286429    0.393571    0.179857     0.002533
BA        0.357857    0.357857    0.145000     0.002533
TI        0.393571    0.393571    0.181429     0.002533
O         0.393571    0.393571    0.215000     0.002533
O         0.393571    0.357857    0.179857     0.002533
O         0.357857    0.393571    0.179857     0.002533
BA        0.429286    0.357857    0.145000     0.002533
TI        0.465000    0.393571    0.181429     0.002533
O         0.465000    0.393571    0.215000     0.002533
O         0.465000    0.357857    0.179857     0.002533
O         0.429286    0.393571    0.179857     0.002533
BA        0.500714    0.357857    0.145000     0.002533
TI        0.536429    0.393571    0.181429     0.002533
O         0.536429    0.393571    0.215000     0.002533
O         0.536429    0.357857    0.179857     0.002533
O         0.500714    0.393571    0.179857     0.002533
BA        0.572143    0.357857    0.145000     0.002533
TI        0.607857    0.393571    0.181429     0.002533
O         0.607857    0.393571    0.215000     0.002533
O         0.607857    0.357857    0.179857     0.002533
O         0.572143    0.393571    0.179857     0.002533
BA        0.643571    0.357857    0.145000     0.002533
TI        0.679286    0.393571    0.181429     0.002533
O         0.679286    0.393571    0.215000     0.002533
O         0.679286    0.357857    0.179857     0.002533
O         0.643571    0.393571    0.179857     0.002533
BA        0.715000    0.357857    0.145000     0.002533
TI        0.750714    0.393571    0.181429     0.002533
O         0.750714    0.393571    0.215000     0.002533
O         0.750714    0.357857    0.179857     0.002533
O         0.715000    0.393571    0.179857     0.002533
O         0.786429    0.393571    0.179857     0.002533
TI        0.107857    0.465000    0.181429     0.002533
O         0.107857    0.465000    0.215000     0.002533
O         0.107857    0.429286    0.179857     0.002533
O         0.072143    0.465000    0.179857     0.002533
BA        0.143571    0.429286    0.145000     0.002533
TI        0.179286    0.465000    0.181429     0.002533
O         0.179286    0.465000    0.215000     0.002533
O         0.179286    0.429286    0.179857     0.002533
O         0.143571    0.465000    0.179857     0.002533
BA        0.215000    0.429286    0.145000     0.002533
TI        0.250714    0.465000    0.181429     0.002533
O         0.250714    0.465000    0.215000     0.002533
O         0.250714    0.429286    0.179857     0.002533
O         0.215000    0.465000    0.179857     0.002533
BA        0.286429    0.429286    0.145000     0.002533
TI        0.322143    0.465000    0.181429     0.002533
O         0.322143    0.465000    0.215000     0.002533
O         0.322143    0.429286    0.179857     0.002533
O         0.286429    0.465000    0.179857     0.002533
BA        0.357857    0.429286    0.145000     0.002533
TI        0.393571    0.465000    0.181429     0.002533
O         0.393571    0.465000    0.215000     0.002533
O         0.393571    0.429286    0.179857     0.002533
O         0.357857    0.465000    0.179857     0.002533
BA        0.429286    0.429286    0.145000     0.002533
TI        0.465000    0.465000    0.181429     0.002533
O         0.465000    0.465000    0.215000     0.002533
O         0.465000    0.429286    0.179857     0.002533
O         0.429286    0.465000    0.179857     0.002533
BA        0.500714    0.429286    0.145000     0.002533
TI        0.536429    0.465000    0.181429     0.002533
O         0.536429    0.465000    0.215000     0.002533
O         0.536429    0.429286    0.179857     0.002533
O         0.500714    0.465000    0.179857     0.002533
BA        0.572143    0.429286    0.145000     0.002533
TI        0.607857    0.465000    0.181429     0.002533
O         0.607857    0.465000    0.215000     0.002533
O         0.607857    0.429286    0.179857     0.002533
O         0.572143    0.465000    0.179857     0.002533
BA        0.643571    0.429286    0.145000     0.002533
TI        0.679286    0.465000    0.181429     0.002533
O         0.679286    0.465000    0.215000     0.002533
O         0.679286    0.429286    0.179857     0.002533
O         0.643571    0.465000    0.179857     0.002533
BA        0.715000    0.429286    0.145000     0.002533
TI        0.750714    0.465000    0.181429     0.002533
O         0.750714    0.465000    0.215000     0.002533
O         0.750714    0.429286    0.179857     0.002533
O         0.715000    0.465000    0.179857     0.002533
O         0.786429    0.465000    0.179857     0.002533
TI        0.107857    0.536429    0.181429     0.002533
O         0.107857    0.536429    0.215000     0.002533
O         0.107857    0.500714    0.179857     0.002533
BA        0.143571    0.500714    0.145000     0.002533
TI        0.179286    0.536429    0.181429     0.002533
O         0.179286    0.536429    0.215000     0.002533
O         0.179286    0.500714    0.179857     0.002533
O         0.143571    0.536429    0.179857     0.002533
BA        0.215000    0.500714    0.145000     0.002533
TI        0.250714    0.536429    0.181429     0.002533
O         0.250714    0.536429    0.215000     0.002533
O         0.250714    0.500714    0.179857     0.002533
O         0.215000    0.536429    0.179857     0.002533
BA        0.286429    0.500714    0.145000     0.002533
TI        0.322143    0.536429    0.181429     0.002533
O         0.322143    0.536429    0.215000     0.002533
O         0.322143    0.500714    0.179857     0.002533
O         0.286429    0.536429    0.179857     0.002533
BA        0.357857    0.500714    0.145000     0.002533
TI        0.393571    0.536429    0.181429     0.002533
O         0.393571    0.536429    0.215000     0.002533
O         0.393571    0.500714    0.179857     0.002533
O         0.357857    0.536429    0.179857     0.002533
BA        0.429286    0.500714    0.145000     0.002533
TI        0.465000    0.536429    0.181429     0.002533
O         0.465000    0.536429    0.215000     0.002533
O         0.465000    0.500714    0.179857     0.002533
O         0.429286    0.536429    0.179857     0.002533
BA        0.500714    0.500714    0.145000     0.002533
TI        0.536429    0.536429    0.181429     0.002533
O         0.536429    0.536429    0.215000     0.002533
O         0.536429    0.500714    0.179857     0.002533
O         0.500714    0.536429    0.179857     0.002533
BA        0.572143    0.500714    0.145000     0.002533
TI        0.607857    0.536429    0.181429     0.002533
O         0.607857    0.536429    0.215000     0.002533
O         0.607857    0.500714    0.179857     0.002533
O         0.572143    0.536429    0.179857     0.002533
BA        0.643571    0.500714    0.145000     0.002533
TI        0.679286    0.536429    0.181429     0.002533
O         0.679286    0.536429    0.215000     0.002533
O         0.679286    0.500714    0.179857     0.002533
O         0.643571    0.536429    0.179857     0.002533
BA        0.715000    0.500714    0.145000     0.002533
TI        0.750714    0.536429    0.181429     0.002533
O         0.750714    0.536429    0.215000     0.002533
O         0.750714    0.500714    0.179857     0.002533
O         0.715000    0.536429    0.179857     0.002533
O         0.107857    0.607857    0.215000     0.002533
O         0.107857    0.572143    0.179857     0.002533
BA        0.143571    0.572143    0.145000     0.002533
TI        0.179286    0.607857    0.181429     0.002533
O         0.179286    0.607857    0.215000     0.002533
O         0.179286    0.572143    0.179857     0.002533
O         0.143571    0.607857    0.179857     0.002533
BA        0.215000    0.572143    0.145000     0.002533
TI        0.250714    0.607857    0.181429     0.002533
O         0.250714    0.607857    0.215000     0.002533
O         0.250714    0.572143    0.179857     0.002533
O         0.215000    0.607857    0.179857     0.002533
BA        0.286429    0.572143    0.145000     0.002533
TI        0.322143    0.607857    0.181429     0.002533
O         0.322143    0.607857    0.215000     0.002533
O         0.322143    0.572143    0.179857     0.002533
O         0.286429    0.607857    0.179857     0.002533
BA        0.357857    0.572143    0.145000     0.002533
TI        0.393571    0.607857    0.181429     0.002533
O         0.393571    0.607857    0.215000     0.002533
O         0.393571    0.572143    0.179857     0.002533
O         0.357857    0.607857    0.179857     0.002533
BA        0.429286    0.572143    0.145000     0.002533
TI        0.465000    0.607857    0.181429     0.002533
O         0.465000    0.607857    0.215000     0.002533
O         0.465000    0.572143    0.179857     0.002533
O         0.429286    0.607857    0.179857     0.002533
BA        0.500714    0.572143    0.145000     0.002533
TI        0.536429    0.607857    0.181429     0.002533
O         0.536429    0.607857    0.215000     0.002533
O         0.536429    0.572143    0.179857     0.002533
O         0.500714    0.607857    0.179857     0.002533
BA        0.572143    0.572143    0.145000     0.002533
TI        0.607857    0.607857    0.181429     0.002533
O         0.607857    0.607857    0.215000     0.002533
O         0.607857    0.572143    0.179857     0.002533
O         0.572143    0.607857    0.179857     0.002533
BA        0.643571    0.572143    0.145000     0.002533
TI        0.679286    0.607857    0.181429     0.002533
O         0.679286    0.607857    0.215000     0.002533
O         0.679286    0.572143    0.179857     0.002533
O         0.643571    0.607857    0.179857     0.002533
BA        0.715000    0.572143    0.145000     0.002533
O         0.750714    0.607857    0.215000     0.002533
O         0.750714    0.572143    0.179857     0.002533
O         0.715000    0.607857    0.179857     0.002533
TI        0.179286    0.679286    0.181429     0.002533
O         0.179286    0.679286    0.215000     0.002533
O         0.179286    0.643571    0.179857     0.002533
BA        0.215000    0.643571    0.145000     0.002533
TI        0.250714    0.679286    0.181429     0.002533
O         0.250714    0.679286    0.215000     0.002533
O         0.250714    0.643571    0.179857     0.002533
O         0.215000    0.679286    0.179857     0.002533
BA        0.286429    0.643571    0.145000     0.002533
TI        0.322143    0.679286    0.181429     0.002533
O         0.322143    0.679286    0.215000     0.002533
O         0.322143    0.643571    0.179857     0.002533
O         0.286429    0.679286    0.179857     0.002533
BA        0.357857    0.643571    0.145000     0.002533
TI        0.393571    0.679286    0.181429     0.002533
O         0.393571    0.679286    0.215000     0.002533
O         0.393571    0.643571    0.179857     0.002533
O         0.357857    0.679286    0.179857     0.002533
BA        0.429286    0.643571    0.145000     0.002533
TI        0.465000    0.679286    0.181429     0.002533
O         0.465000    0.679286    0.215000     0.002533
O         0.465000    0.643571    0.179857     0.002533
O         0.429286    0.679286    0.179857     0.002533
BA        0.500714    0.643571    0.145000     0.002533
TI        0.536429    0.679286    0.181429     0.002533
O         0.536429    0.679286    0.215000     0.002533
O         0.536429    0.643571    0.179857     0.002533
O         0.500714    0.679286    0.179857     0.002533
BA        0.572143    0.643571    0.145000     0.002533
TI        0.607857    0.679286    0.181429     0.002533
O         0.607857    0.679286    0.215000     0.002533
O         0.607857    0.643571    0.179857     0.002533
O         0.572143    0.679286    0.179857     0.002533
BA        0.643571    0.643571    0.145000     0.002533
TI        0.679286    0.679286    0.181429     0.002533
O         0.679286    0.679286    0.215000     0.002533
O         0.679286    0.643571    0.179857     0.002533
O         0.643571    0.679286    0.179857     0.002533
O         0.250714    0.750714    0.215000     0.002533
O         0.250714    0.715000    0.179857     0.002533
BA        0.286429    0.715000    0.145000     0.002533
TI        0.322143    0.750714    0.181429     0.002533
O         0.322143    0.750714    0.215000     0.002533
O         0.322143    0.715000    0.179857     0.002533
O         0.286429    0.750714    0.179857     0.002533
BA        0.357857    0.715000    0.145000     0.002533
TI        0.393571    0.750714    0.181429     0.002533
O         0.393571    0.750714    0.215000     0.002533
O         0.393571    0.715000    0.179857     0.002533
O         0.357857    0.750714    0.179857     0.002533
BA        0.429286    0.715000    0.145000     0.002533
TI        0.465000    0.750714    0.181429     0.002533
O         0.465000    0.750714    0.215000     0.002533
O         0.465000    0.715000    0.179857     0.002533
O         0.429286    0.750714    0.179857     0.002533
BA        0.500714    0.715000    0.145000     0.002533
TI        0.536429    0.750714    0.181429     0.002533
O         0.536429    0.750714    0.215000     0.002533
O         0.536429    0.715000    0.179857     0.002533
O         0.500714    0.750714    0.179857     0.002533
BA        0.572143    0.715000    0.145000     0.002533
O         0.607857    0.750714    0.215000     0.002533
O         0.607857    0.715000    0.179857     0.002533
O         0.572143    0.750714    0.179857     0.002533
O         0.393571    0.786429    0.179857     0.002533
O         0.465000    0.786429    0.179857     0.002533
O         0.322143    0.036429    0.286429     0.002533
TI        0.393571    0.036429    0.252857     0.002533
O         0.393571    0.036429    0.286429     0.002533
O         0.357857    0.036429    0.251286     0.002533
TI        0.465000    0.036429    0.252857     0.002533
O         0.465000    0.036429    0.286429     0.002533
O         0.429286    0.036429    0.251286     0.002533
O         0.536429    0.036429    0.286429     0.002533
O         0.500714    0.036429    0.251286     0.002533
O         0.179286    0.107857    0.286429     0.002533
TI        0.250714    0.107857    0.252857     0.002533
O         0.250714    0.107857    0.286429     0.002533
O         0.250714    0.072143    0.251286     0.002533
O         0.215000    0.107857    0.251286     0.002533
BA        0.286429    0.072143    0.216429     0.002533
TI        0.322143    0.107857    0.252857     0.002533
O         0.322143    0.107857    0.286429     0.002533
O         0.322143    0.072143    0.251286     0.002533
O         0.286429    0.107857    0.251286     0.002533
BA        0.357857    0.072143    0.216429     0.002533
TI        0.393571    0.107857    0.252857     0.002533
O         0.393571    0.107857    0.286429     0.002533
O         0.393571    0.072143    0.251286     0.002533
O         0.357857    0.107857    0.251286     0.002533
BA        0.429286    0.072143    0.216429     0.002533
TI        0.465000    0.107857    0.252857     0.002533
O         0.465000    0.107857    0.286429     0.002533
O         0.465000    0.072143    0.251286     0.002533
O         0.429286    0.107857    0.251286     0.002533
BA        0.500714    0.072143    0.216429     0.002533
TI        0.536429    0.107857    0.252857     0.002533
O         0.536429    0.107857    0.286429     0.002533
O         0.536429    0.072143    0.251286     0.002533
O         0.500714    0.107857    0.251286     0.002533
BA        0.572143    0.072143    0.216429     0.002533
TI        0.607857    0.107857    0.252857     0.002533
O         0.607857    0.107857    0.286429     0.002533
O         0.607857    0.072143    0.251286     0.002533
O         0.572143    0.107857    0.251286     0.002533
O         0.679286    0.107857    0.286429     0.002533
O         0.643571    0.107857    0.251286     0.002533
O         0.107857    0.179286    0.286429     0.002533
TI        0.179286    0.179286    0.252857     0.002533
O         0.179286    0.179286    0.286429     0.002533
O         0.179286    0.143571    0.251286     0.002533
O         0.143571    0.179286    0.251286     0.002533
BA        0.215000    0.143571    0.216429     0.002533
TI        0.250714    0.179286    0.252857     0.002533
O         0.250714    0.179286    0.286429     0.002533
O         0.250714    0.143571    0.251286     0.002533
O         0.215000    0.179286    0.251286     0.002533
BA        0.286429    0.143571    0.216429     0.002533
TI        0.322143    0.179286    0.252857     0.002533
O         0.322143    0.179286    0.286429     0.002533
O         0.322143    0.143571    0.251286     0.002533
O         0.286429    0.179286    0.251286     0.002533
BA        0.357857    0.143571    0.216429     0.002533
TI        0.393571    0.179286    0.252857     0.002533
O         0.393571    0.179286    0.286429     0.002533
O         0.393571    0.143571    0.251286     0.002533
O         0.357857    0.179286    0.251286     0.002533
BA        0.429286    0.143571    0.216429     0.002533
TI        0.465000    0.179286    0.252857     0.002533
O         0.465000    0.179286    0.286429     0.002533
O         0.465000    0.143571    0.251286     0.002533
O         0.429286    0.179286    0.251286     0.002533
BA        0.500714    0.143571    0.216429     0.002533
TI        0.536429    0.179286    0.252857     0.002533
O         0.536429    0.179286    0.286429     0.002533
O         0.536429    0.143571    0.251286     0.002533
O         0.500714    0.179286    0.251286     0.002533
BA        0.572143    0.143571    0.216429     0.002533
TI        0.607857    0.179286    0.252857     0.002533
O         0.607857    0.179286    0.286429     0.002533
O         0.607857    0.143571    0.251286     0.002533
O         0.572143    0.179286    0.251286     0.002533
BA        0.643571    0.143571    0.216429     0.002533
TI        0.679286    0.179286    0.252857     0.002533
O         0.679286    0.179286    0.286429     0.002533
O         0.679286    0.143571    0.251286     0.002533
O         0.643571    0.179286    0.251286     0.002533
O         0.750714    0.179286    0.286429     0.002533
O         0.715000    0.179286    0.251286     0.002533
TI        0.107857    0.250714    0.252857     0.002533
O         0.107857    0.250714    0.286429     0.002533
O         0.107857    0.215000    0.251286     0.002533
O         0.072143    0.250714    0.251286     0.002533
BA        0.143571    0.215000    0.216429     0.002533
TI        0.179286    0.250714    0.252857     0.002533
O         0.179286    0.250714    0.286429     0.002533
O         0.179286    0.215000    0.251286     0.002533
O         0.143571    0.250714    0.251286     0.002533
BA        0.215000    0.215000    0.216429     0.002533
TI        0.250714    0.250714    0.252857     0.002533
O         0.250714    0.250714    0.286429     0.002533
O         0.250714    0.215000    0.251286     0.002533
O         0.215000    0.250714    0.251286     0.002533
BA        0.286429    0.215000    0.216429     0.002533
TI        0.322143    0.250714    0.252857     0.002533
O         0.322143    0.250714    0.286429     0.002533
O         0.322143    0.215000    0.251286     0.002533
O         0.286429    0.250714    0.251286     0.002533
BA        0.357857    0.215000    0.216429     0.002533
TI        0.393571    0.250714    0.252857     0.002533
O         0.393571    0.250714    0.286429     0.002533
O         0.393571    0.215000    0.251286     0.002533
O         0.357857    0.250714    0.251286     0.002533
BA        0.429286    0.215000    0.216429     0.002533
TI        0.465000    0.250714    0.252857     0.002533
O         0.465000    0.250714    0.286429     0.002533
O         0.465000    0.215000    0.251286     0.002533
O         0.429286    0.250714    0.251286     0.002533
BA        0.500714    0.215000    0.216429     0.002533
TI        0.536429    0.250714    0.252857     0.002533
O         0.536429    0.250714    0.286429     0.002533
O         0.536429    0.215000    0.251286     0.002533
O         0.500714    0.250714    0.251286     0.002533
BA        0.572143    0.215000    0.216429     0.002533
TI        0.607857    0.250714    0.252857     0.002533
O         0.607857    0.250714    0.286429     0.002533
O         0.607857    0.215000    0.251286     0.002533
O         0.572143    0.250714    0.251286     0.002533
BA        0.643571    0.215000    0.216429     0.002533
TI        0.679286    0.250714    0.252857     0.002533
O         0.679286    0.250714    0.286429     0.002533
O         0.679286    0.215000    0.251286     0.002533
O         0.643571    0.250714    0.251286     0.002533
BA        0.715000    0.215000    0.216429     0.002533
TI        0.750714    0.250714    0.252857     0.002533
O         0.750714    0.250714    0.286429     0.002533
O         0.750714    0.215000    0.251286     0.002533
O         0.715000    0.250714    0.251286     0.002533
O         0.786429    0.250714    0.251286     0.002533
O         0.036429    0.322143    0.286429     0.002533
BA        0.072143    0.286429    0.216429     0.002533
TI        0.107857    0.322143    0.252857     0.002533
O         0.107857    0.322143    0.286429     0.002533
O         0.107857    0.286429    0.251286     0.002533
O         0.072143    0.322143    0.251286     0.002533
BA        0.143571    0.286429    0.216429     0.002533
TI        0.179286    0.322143    0.252857     0.002533
O         0.179286    0.322143    0.286429     0.002533
O         0.179286    0.286429    0.251286     0.002533
O         0.143571    0.322143    0.251286     0.002533
BA        0.215000    0.286429    0.216429     0.002533
TI        0.250714    0.322143    0.252857     0.002533
O         0.250714    0.322143    0.286429     0.002533
O         0.250714    0.286429    0.251286     0.002533
O         0.215000    0.322143    0.251286     0.002533
BA        0.286429    0.286429    0.216429     0.002533
TI        0.322143    0.322143    0.252857     0.002533
O         0.322143    0.322143    0.286429     0.002533
O         0.322143    0.286429    0.251286     0.002533
O         0.286429    0.322143    0.251286     0.002533
BA        0.357857    0.286429    0.216429     0.002533
TI        0.393571    0.322143    0.252857     0.002533
O         0.393571    0.322143    0.286429     0.002533
O         0.393571    0.286429    0.251286     0.002533
O         0.357857    0.322143    0.251286     0.002533
BA        0.429286    0.286429    0.216429     0.002533
TI        0.465000    0.322143    0.252857     0.002533
O         0.465000    0.322143    0.286429     0.002533
O         0.465000    0.286429    0.251286     0.002533
O         0.429286    0.322143    0.251286     0.002533
BA        0.500714    0.286429    0.216429     0.002533
TI        0.536429    0.322143    0.252857     0.002533
O         0.536429    0.322143    0.286429     0.002533
O         0.536429    0.286429    0.251286     0.002533
O         0.500714    0.322143    0.251286     0.002533
BA        0.572143    0.286429    0.216429     0.002533
TI        0.607857    0.322143    0.252857     0.002533
O         0.607857    0.322143    0.286429     0.002533
O         0.607857    0.286429    0.251286     0.002533
O         0.572143    0.322143    0.251286     0.002533
BA        0.643571    0.286429    0.216429     0.002533
TI        0.679286    0.322143    0.252857     0.002533
O         0.679286    0.322143    0.286429     0.002533
O         0.679286    0.286429    0.251286     0.002533
O         0.643571    0.322143    0.251286     0.002533
BA        0.715000    0.286429    0.216429     0.002533
TI        0.750714    0.322143    0.252857     0.002533
O         0.750714    0.322143    0.286429     0.002533
O         0.750714    0.286429    0.251286     0.002533
O         0.715000    0.322143    0.251286     0.002533
BA        0.786429    0.286429    0.216429     0.002533
O         0.822143    0.322143    0.286429     0.002533
O         0.786429    0.322143    0.251286     0.002533
TI        0.036429    0.393571    0.252857     0.002533
O         0.036429    0.393571    0.286429     0.002533
O         0.036429    0.357857    0.251286     0.002533
BA        0.072143    0.357857    0.216429     0.002533
TI        0.107857    0.393571    0.252857     0.002533
O         0.107857    0.393571    0.286429     0.002533
O         0.107857    0.357857    0.251286     0.002533
O         0.072143    0.393571    0.251286     0.002533
BA        0.143571    0.357857    0.216429     0.002533
TI        0.179286    0.393571    0.252857     0.002533
O         0.179286    0.393571    0.286429     0.002533
O         0.179286    0.357857    0.251286     0.002533
O         0.143571    0.393571    0.251286     0.002533
BA        0.215000    0.357857    0.216429     0.002533
TI        0.250714    0.393571    0.252857     0.002533
O         0.250714    0.393571    0.286429     0.002533
O         0.250714    0.357857    0.251286     0.002533
O         0.215000    0.393571    0.251286     0.002533
BA        0.286429    0.357857    0.216429     0.002533
TI        0.322143    0.393571    0.252857     0.002533
O         0.322143    0.393571    0.286429     0.002533
O         0.322143    0.357857    0.251286     0.002533
O         0.286429    0.393571    0.251286     0.002533
BA        0.357857    0.357857    0.216429     0.002533
TI        0.393571    0.393571    0.252857     0.002533
O         0.393571    0.393571    0.286429     0.002533
O         0.393571    0.357857    0.251286     0.002533
O         0.357857    0.393571    0.251286     0.002533
BA        0.429286    0.357857    0.216429     0.002533
TI        0.465000    0.393571    0.252857     0.002533
O         0.465000    0.393571    0.286429     0.002533
O         0.465000    0.357857    0.251286     0.002533
O         0.429286    0.393571    0.251286     0.002533
BA        0.500714    0.357857    0.216429     0.002533
TI        0.536429    0.393571    0.252857     0.002533
O         0.536429    0.393571    0.286429     0.002533
O         0.536429    0.357857    0.251286     0.002533
O         0.500714    0.393571    0.251286     0.002533
BA        0.572143    0.357857    0.216429     0.002533
TI        0.607857    0.393571    0.252857     0.002533
O         0.607857    0.393571    0.286429     0.002533
O         0.607857    0.357857    0.251286     0.002533
O         0.572143    0.393571    0.251286     0.002533
BA        0.643571    0.357857    0.216429     0.002533
TI        0.679286    0.393571    0.252857     0.002533
O         0.679286    0.393571    0.286429     0.002533
O         0.679286    0.357857    0.251286     0.002533
O         0.643571    0.393571    0.251286     0.002533
BA        0.715000    0.357857    0.216429     0.002533
TI        0.750714    0.393571    0.252857     0.002533
O         0.750714    0.393571    0.286429     0.002533
O         0.750714    0.357857    0.251286     0.002533
O         0.715000    0.393571    0.251286     0.002533
BA        0.786429    0.357857    0.216429     0.002533
TI        0.822143    0.393571    0.252857     0.002533
O         0.822143    0.393571    0.286429     0.002533
O         0.822143    0.357857    0.251286     0.002533
O         0.786429    0.393571    0.251286     0.002533
TI        0.036429    0.465000    0.252857     0.002533
O         0.036429    0.465000    0.286429     0.002533
O         0.036429    0.429286    0.251286     0.002533
BA        0.072143    0.429286    0.216429     0.002533
TI        0.107857    0.465000    0.252857     0.002533
O         0.107857    0.465000    0.286429     0.002533
O         0.107857    0.429286    0.251286     0.002533
O         0.072143    0.465000    0.251286     0.002533
BA        0.143571    0.429286    0.216429     0.002533
TI        0.179286    0.465000    0.252857     0.002533
O         0.179286    0.465000    0.286429     0.002533
O         0.179286    0.429286    0.251286     0.002533
O         0.143571    0.465000    0.251286     0.002533
BA        0.215000    0.429286    0.216429     0.002533
TI        0.250714    0.465000    0.252857     0.002533
O         0.250714    0.465000    0.286429     0.002533
O         0.250714    0.429286    0.251286     0.002533
O         0.215000    0.465000    0.251286     0.002533
BA        0.286429    0.429286    0.216429     0.002533
TI        0.322143    0.465000    0.252857     0.002533
O         0.322143    0.465000    0.286429     0.002533
O         0.322143    0.429286    0.251286     0.002533
O         0.286429    0.465000    0.251286     0.002533
BA        0.357857    0.429286    0.216429     0.002533
TI        0.393571    0.465000    0.252857     0.002533
O         0.393571    0.465000    0.286429     0.002533
O         0.393571    0.429286    0.251286     0.002533
O         0.357857    0.465000    0.251286     0.002533
BA        0.429286    0.429286    0.216429     0.002533
TI        0.465000    0.465000    0.252857     0.002533
O         0.465000    0.465000    0.286429     0.002533
O         0.465000    0.429286    0.251286     0.002533
O         0.429286    0.465000    0.251286     0.002533
BA        0.500714    0.429286    0.216429     0.002533
TI        0.536429    0.465000    0.252857     0.002533
O         0.536429    0.465000    0.286429     0.002533
O         0.536429    0.429286    0.251286     0.002533
O         0.500714    0.465000    0.251286     0.002533
BA        0.572143    0.429286    0.216429     0.002533
TI        0.607857    0.465000    0.252857     0.002533
O         0.607857    0.465000    0.286429     0.002533
O         0.607857    0.429286    0.251286     0.002533
O         0.572143    0.465000    0.251286     0.002533
BA        0.643571    0.429286    0.216429     0.002533
TI        0.679286    0.465000    0.252857     0.002533
O         0.679286    0.465000    0.286429     0.002533
O         0.679286    0.429286    0.251286     0.002533
O         0.643571    0.465000    0.251286     0.002533
BA        0.715000    0.429286    0.216429     0.002533
TI        0.750714    0.465000    0.252857     0.002533
O         0.750714    0.465000    0.286429     0.002533
O         0.750714    0.429286    0.251286     0.002533
O         0.715000    0.465000    0.251286     0.002533
BA        0.786429    0.429286    0.216429     0.002533
TI        0.822143    0.465000    0.252857     0.002533
O         0.822143    0.465000    0.286429     0.002533
O         0.822143    0.429286    0.251286     0.002533
O         0.786429    0.465000    0.251286     0.002533
O         0.036429    0.536429    0.286429     0.002533
O         0.036429    0.500714    0.251286     0.002533
BA        0.072143    0.500714    0.216429     0.002533
TI        0.107857    0.536429    0.252857     0.002533
O         0.107857    0.536429    0.286429     0.002533
O         0.107857    0.500714    0.251286     0.002533
O         0.072143    0.536429    0.251286     0.002533
BA        0.143571    0.500714    0.216429     0.002533
TI        0.179286    0.536429    0.252857     0.002533
O         0.179286    0.536429    0.286429     0.002533
O         0.179286    0.500714    0.251286     0.002533
O         0.143571    0.536429    0.251286     0.002533
BA        0.215000    0.500714    0.216429     0.002533
TI        0.250714    0.536429    0.252857     0.002533
O         0.250714    0.536429    0.286429     0.002533
O         0.250714    0.500714    0.251286     0.002533
O         0.215000    0.536429    0.251286     0.002533
BA        0.286429    0.500714    0.216429     0.002533
TI        0.322143    0.536429    0.252857     0.002533
O         0.322143    0.536429    0.286429     0.002533
O         0.322143    0.500714    0.251286     0.002533
O         0.286429    0.536429    0.251286     0.002533
BA        0.357857    0.500714    0.216429     0.002533
TI        0.393571    0.536429    0.252857     0.002533
O         0.393571    0.536429    0.286429     0.002533
O         0.393571    0.500714    0.251286     0.002533
O         0.357857    0.536429    0.251286     0.002533
BA        0.429286    0.500714    0.216429     0.002533
TI        0.465000    0.536429    0.252857     0.002533
O         0.465000    0.536429    0.286429     0.002533
O         0.465000    0.500714    0.251286     0.002533
O         0.429286    0.536429    0.251286     0.002533
BA        0.500714    0.500714    0.216429     0.002533
TI        0.536429    0.536429    0.252857     0.002533
O         0.536429    0.536429    0.286429     0.002533
O         0.536429    0.500714    0.251286     0.002533
O         0.500714    0.536429    0.251286     0.002533
BA        0.572143    0.500714    0.216429     0.002533
TI        0.607857    0.536429    0.252857     0.002533
O         0.607857    0.536429    0.286429     0.002533
O         0.607857    0.500714    0.251286     0.002533
O         0.572143    0.536429    0.251286     0.002533
BA        0.643571    0.500714    0.216429     0.002533
TI        0.679286    0.536429    0.252857     0.002533
O         0.679286    0.536429    0.286429     0.002533
O         0.679286    0.500714    0.251286     0.002533
O         0.643571    0.536429    0.251286     0.002533
BA        0.715000    0.500714    0.216429     0.002533
TI        0.750714    0.536429    0.252857     0.002533
O         0.750714    0.536429    0.286429     0.002533
O         0.750714    0.500714    0.251286     0.002533
O         0.715000    0.536429    0.251286     0.002533
BA        0.786429    0.500714    0.216429     0.002533
O         0.822143    0.536429    0.286429     0.002533
O         0.822143    0.500714    0.251286     0.002533
O         0.786429    0.536429    0.251286     0.002533
BA        0.072143    0.572143    0.216429     0.002533
TI        0.107857    0.607857    0.252857     0.002533
O         0.107857    0.607857    0.286429     0.002533
O         0.107857    0.572143    0.251286     0.002533
O         0.072143    0.607857    0.251286     0.002533
BA        0.143571    0.572143    0.216429     0.002533
TI        0.179286    0.607857    0.252857     0.002533
O         0.179286    0.607857    0.286429     0.002533
O         0.179286    0.572143    0.251286     0.002533
O         0.143571    0.607857    0.251286     0.002533
BA        0.215000    0.572143    0.216429     0.002533
TI        0.250714    0.607857    0.252857     0.002533
O         0.250714    0.607857    0.286429     0.002533
O         0.250714    0.572143    0.251286     0.002533
O         0.215000    0.607857    0.251286     0.002533
BA        0.286429    0.572143    0.216429     0.002533
TI        0.322143    0.607857    0.252857     0.002533
O         0.322143    0.607857    0.286429     0.002533
O         0.322143    0.572143    0.251286     0.002533
O         0.286429    0.607857    0.251286     0.002533
BA        0.357857    0.572143    0.216429     0.002533
TI        0.393571    0.607857    0.252857     0.002533
O         0.393571    0.607857    0.286429     0.002533
O         0.393571    0.572143    0.251286     0.002533
O         0.357857    0.607857    0.251286     0.002533
BA        0.429286    0.572143    0.216429     0.002533
TI        0.465000    0.607857    0.252857     0.002533
O         0.465000    0.607857    0.286429     0.002533
O         0.465000    0.572143    0.251286     0.002533
O         0.429286    0.607857    0.251286     0.002533
BA        0.500714    0.572143    0.216429     0.002533
TI        0.536429    0.607857    0.252857     0.002533
O         0.536429    0.607857    0.286429     0.002533
O         0.536429    0.572143    0.251286     0.002533
O         0.500714    0.607857    0.251286     0.002533
BA        0.572143    0.572143    0.216429     0.002533
TI        0.607857    0.607857    0.252857     0.002533
O         0.607857    0.607857    0.286429     0.002533
O         0.607857    0.572143    0.251286     0.002533
O         0.572143    0.607857    0.251286     0.002533
BA        0.643571    0.572143    0.216429     0.002533
TI        0.679286    0.607857    0.252857     0.002533
O         0.679286    0.607857    0.286429     0.002533
O         0.679286    0.572143    0.251286     0.002533
O         0.643571    0.607857    0.251286     0.002533
BA        0.715000    0.572143    0.216429     0.002533
TI        0.750714    0.607857    0.252857     0.002533
O         0.750714    0.607857    0.286429     0.002533
O         0.750714    0.572143    0.251286     0.002533
O         0.715000    0.607857    0.251286     0.002533
BA        0.786429    0.572143    0.216429     0.002533
O         0.786429    0.607857    0.251286     0.002533
O         0.107857    0.679286    0.286429     0.002533
O         0.107857    0.643571    0.251286     0.002533
BA        0.143571    0.643571    0.216429     0.002533
TI        0.179286    0.679286    0.252857     0.002533
O         0.179286    0.679286    0.286429     0.002533
O         0.179286    0.643571    0.251286     0.002533
O         0.143571    0.679286    0.251286     0.002533
BA        0.215000    0.643571    0.216429     0.002533
TI        0.250714    0.679286    0.252857     0.002533
O         0.250714    0.679286    0.286429     0.002533
O         0.250714    0.643571    0.251286     0.002533
O         0.215000    0.679286    0.251286     0.002533
BA        0.286429    0.643571    0.216429     0.002533
TI        0.322143    0.679286    0.252857     0.002533
O         0.322143    0.679286    0.286429     0.002533
O         0.322143    0.643571    0.251286     0.002533
O         0.286429    0.679286    0.251286     0.002533
BA        0.357857    0.643571    0.216429     0.002533
TI        0.393571    0.679286    0.252857     0.002533
O         0.393571    0.679286    0.286429     0.002533
O         0.393571    0.643571    0.251286     0.002533
O         0.357857    0.679286    0.251286     0.002533
BA        0.429286    0.643571    0.216429     0.002533
TI        0.465000    0.679286    0.252857     0.002533
O         0.465000    0.679286    0.286429     0.002533
O         0.465000    0.643571    0.251286     0.002533
O         0.429286    0.679286    0.251286     0.002533
BA        0.500714    0.643571    0.216429     0.002533
TI        0.536429    0.679286    0.252857     0.002533
O         0.536429    0.679286    0.286429     0.002533
O         0.536429    0.643571    0.251286     0.002533
O         0.500714    0.679286    0.251286     0.002533
BA        0.572143    0.643571    0.216429     0.002533
TI        0.607857    0.679286    0.252857     0.002533
O         0.607857    0.679286    0.286429     0.002533
O         0.607857    0.643571    0.251286     0.002533
O         0.572143    0.679286    0.251286     0.002533
BA        0.643571    0.643571    0.216429     0.002533
TI        0.679286    0.679286    0.252857     0.002533
O         0.679286    0.679286    0.286429     0.002533
O         0.679286    0.643571    0.251286     0.002533
O         0.643571    0.679286    0.251286     0.002533
BA        0.715000    0.643571    0.216429     0.002533
O         0.750714    0.679286    0.286429     0.002533
O         0.750714    0.643571    0.251286     0.002533
O         0.715000    0.679286    0.251286     0.002533
O         0.179286    0.750714    0.286429     0.002533
O         0.179286    0.715000    0.251286     0.002533
BA        0.215000    0.715000    0.216429     0.002533
TI        0.250714    0.750714    0.252857     0.002533
O         0.250714    0.750714    0.286429     0.002533
O         0.250714    0.715000    0.251286     0.002533
O         0.215000    0.750714    0.251286     0.002533
BA        0.286429    0.715000    0.216429     0.002533
TI        0.322143    0.750714    0.252857     0.002533
O         0.322143    0.750714    0.286429     0.002533
O         0.322143    0.715000    0.251286     0.002533
O         0.286429    0.750714    0.251286     0.002533
BA        0.357857    0.715000    0.216429     0.002533
TI        0.393571    0.750714    0.252857     0.002533
O         0.393571    0.750714    0.286429     0.002533
O         0.393571    0.715000    0.251286     0.002533
O         0.357857    0.750714    0.251286     0.002533
BA        0.429286    0.715000    0.216429     0.002533
TI        0.465000    0.750714    0.252857     0.002533
O         0.465000    0.750714    0.286429     0.002533
O         0.465000    0.715000    0.251286     0.002533
O         0.429286    0.750714    0.251286     0.002533
BA        0.500714    0.715000    0.216429     0.002533
TI        0.536429    0.750714    0.252857     0.002533
O         0.536429    0.750714    0.286429     0.002533
O         0.536429    0.715000    0.251286     0.002533
O         0.500714    0.750714    0.251286     0.002533
BA        0.572143    0.715000    0.216429     0.002533
TI        0.607857    0.750714    0.252857     0.002533
O         0.607857    0.750714    0.286429     0.002533
O         0.607857    0.715000    0.251286     0.002533
O         0.572143    0.750714    0.251286     0.002533
BA        0.643571    0.715000    0.216429     0.002533
O         0.679286    0.750714    0.286429     0.002533
O         0.679286    0.715000    0.251286     0.002533
O         0.643571    0.750714    0.251286     0.002533
O         0.250714    0.786429    0.251286     0.002533
BA        0.286429    0.786429    0.216429     0.002533
O         0.322143    0.822143    0.286429     0.002533
O         0.322143    0.786429    0.251286     0.002533
BA        0.357857    0.786429    0.216429     0.002533
TI        0.393571    0.822143    0.252857     0.002533
O         0.393571    0.822143    0.286429     0.002533
O         0.393571    0.786429    0.251286     0.002533
O         0.357857    0.822143    0.251286     0.002533
BA        0.429286    0.786429    0.216429     0.002533
TI        0.465000    0.822143    0.252857     0.002533
O         0.465000    0.822143    0.286429     0.002533
O         0.465000    0.786429    0.251286     0.002533
O         0.429286    0.822143    0.251286     0.002533
BA        0.500714    0.786429    0.216429     0.002533
O         0.536429    0.822143    0.286429     0.002533
O         0.536429    0.786429    0.251286     0.002533
O         0.500714    0.822143    0.251286     0.002533
BA        0.572143    0.786429    0.216429     0.002533
O         0.607857    0.786429    0.251286     0.002533
TI        0.250714    0.036429    0.324286     0.002533
O         0.250714    0.036429    0.357857     0.002533
TI        0.322143    0.036429    0.324286     0.002533
O         0.322143    0.036429    0.357857     0.002533
O         0.286429    0.036429    0.322714     0.002533
TI        0.393571    0.036429    0.324286     0.002533
O         0.393571    0.036429    0.357857     0.002533
O         0.393571    0.000714    0.322714     0.002533
O         0.357857    0.036429    0.322714     0.002533
TI        0.465000    0.036429    0.324286     0.002533
O         0.465000    0.036429    0.357857     0.002533
O         0.465000    0.000714    0.322714     0.002533
O         0.429286    0.036429    0.322714     0.002533
TI        0.536429    0.036429    0.324286     0.002533
O         0.536429    0.036429    0.357857     0.002533
O         0.500714    0.036429    0.322714     0.002533
TI        0.607857    0.036429    0.324286     0.002533
O         0.607857    0.036429    0.357857     0.002533
O         0.572143    0.036429    0.322714     0.002533
TI        0.179286    0.107857    0.324286     0.002533
O         0.179286    0.107857    0.357857     0.002533
O         0.143571    0.107857    0.322714     0.002533
BA        0.215000    0.072143    0.287857     0.002533
TI        0.250714    0.107857    0.324286     0.002533
O         0.250714    0.107857    0.357857     0.002533
O         0.250714    0.072143    0.322714     0.002533
O         0.215000    0.107857    0.322714     0.002533
BA        0.286429    0.072143    0.287857     0.002533
TI        0.322143    0.107857    0.324286     0.002533
O         0.322143    0.107857    0.357857     0.002533
O         0.322143    0.072143    0.322714     0.002533
O         0.286429    0.107857    0.322714     0.002533
BA        0.357857    0.072143    0.287857     0.002533
TI        0.393571    0.107857    0.324286     0.002533
O         0.393571    0.107857    0.357857     0.002533
O         0.393571    0.072143    0.322714     0.002533
O         0.357857    0.107857    0.322714     0.002533
BA        0.429286    0.072143    0.287857     0.002533
TI        0.465000    0.107857    0.324286     0.002533
O         0.465000    0.107857    0.357857     0.002533
O         0.465000    0.072143    0.322714     0.002533
O         0.429286    0.107857    0.322714     0.002533
BA        0.500714    0.072143    0.287857     0.002533
TI        0.536429    0.107857    0.324286     0.002533
O         0.536429    0.107857    0.357857     0.002533
O         0.536429    0.072143    0.322714     0.002533
O         0.500714    0.107857    0.322714     0.002533
BA        0.572143    0.072143    0.287857     0.002533
TI        0.607857    0.107857    0.324286     0.002533
O         0.607857    0.107857    0.357857     0.002533
O         0.607857    0.072143    0.322714     0.002533
O         0.572143    0.107857    0.322714     0.002533
BA        0.643571    0.072143    0.287857     0.002533
TI        0.679286    0.107857    0.324286     0.002533
O         0.679286    0.107857    0.357857     0.002533
O         0.643571    0.107857    0.322714     0.002533
O         0.715000    0.107857    0.322714     0.002533
TI        0.107857    0.179286    0.324286     0.002533
O         0.107857    0.179286    0.357857     0.002533
O         0.107857    0.143571    0.322714     0.002533
BA        0.143571    0.143571    0.287857     0.002533
TI        0.179286    0.179286    0.324286     0.002533
O         0.179286    0.179286    0.357857     0.002533
O         0.179286    0.143571    0.322714     0.002533
O         0.143571    0.179286    0.322714     0.002533
BA        0.215000    0.143571    0.287857     0.002533
TI        0.250714    0.179286    0.324286     0.002533
O         0.250714    0.179286    0.357857     0.002533
O         0.250714    0.143571    0.322714     0.002533
O         0.215000    0.179286    0.322714     0.002533
BA        0.286429    0.143571    0.287857     0.002533
TI        0.322143    0.179286    0.324286     0.002533
O         0.322143    0.179286    0.357857     0.002533
O         0.322143    0.143571    0.322714     0.002533
O         0.286429    0.179286    0.322714     0.002533
BA        0.357857    0.143571    0.287857     0.002533
TI        0.393571    0.179286    0.324286     0.002533
O         0.393571    0.179286    0.357857     0.002533
O         0.393571    0.143571    0.322714     0.002533
O         0.357857    0.179286    0.322714     0.002533
BA        0.429286    0.143571    0.287857     0.002533
TI        0.465000    0.179286    0.324286     0.002533
O         0.465000    0.179286    0.357857     0.002533
O         0.465000    0.143571    0.322714     0.002533
O         0.429286    0.179286    0.322714     0.002533
BA        0.500714    0.143571    0.287857     0.002533
TI        0.536429    0.179286    0.324286     0.002533
O         0.536429    0.179286    0.357857     0.002533
O         0.536429    0.143571    0.322714     0.002533
O         0.500714    0.179286    0.322714     0.002533
BA        0.572143    0.143571    0.287857     0.002533
TI        0.607857    0.179286    0.324286     0.002533
O         0.607857    0.179286    0.357857     0.002533
O         0.607857    0.143571    0.322714     0.002533
O         0.572143    0.179286    0.322714     0.002533
BA        0.643571    0.143571    0.287857     0.002533
TI        0.679286    0.179286    0.324286     0.002533
O         0.679286    0.179286    0.357857     0.002533
O         0.679286    0.143571    0.322714     0.002533
O         0.643571    0.179286    0.322714     0.002533
BA        0.715000    0.143571    0.287857     0.002533
TI        0.750714    0.179286    0.324286     0.002533
O         0.750714    0.179286    0.357857     0.002533
O         0.750714    0.143571    0.322714     0.002533
O         0.715000    0.179286    0.322714     0.002533
TI        0.036429    0.250714    0.324286     0.002533
O         0.036429    0.250714    0.357857     0.002533
BA        0.072143    0.215000    0.287857     0.002533
TI        0.107857    0.250714    0.324286     0.002533
O         0.107857    0.250714    0.357857     0.002533
O         0.107857    0.215000    0.322714     0.002533
O         0.072143    0.250714    0.322714     0.002533
BA        0.143571    0.215000    0.287857     0.002533
TI        0.179286    0.250714    0.324286     0.002533
O         0.179286    0.250714    0.357857     0.002533
O         0.179286    0.215000    0.322714     0.002533
O         0.143571    0.250714    0.322714     0.002533
BA        0.215000    0.215000    0.287857     0.002533
TI        0.250714    0.250714    0.324286     0.002533
O         0.250714    0.250714    0.357857     0.002533
O         0.250714    0.215000    0.322714     0.002533
O         0.215000    0.250714    0.322714     0.002533
BA        0.286429    0.215000    0.287857     0.002533
TI        0.322143    0.250714    0.324286     0.002533
O         0.322143    0.250714    0.357857     0.002533
O         0.322143    0.215000    0.322714     0.002533
O         0.286429    0.250714    0.322714     0.002533
BA        0.357857    0.215000    0.287857     0.002533
TI        0.393571    0.250714    0.324286     0.002533
O         0.393571    0.250714    0.357857     0.002533
O         0.393571    0.215000    0.322714     0.002533
O         0.357857    0.250714    0.322714     0.002533
BA        0.429286    0.215000    0.287857     0.002533
TI        0.465000    0.250714    0.324286     0.002533
O         0.465000    0.250714    0.357857     0.002533
O         0.465000    0.215000    0.322714     0.002533
O         0.429286    0.250714    0.322714     0.002533
BA        0.500714    0.215000    0.287857     0.002533
TI        0.536429    0.250714    0.324286     0.002533
O         0.536429    0.250714    0.357857     0.002533
O         0.536429    0.215000    0.322714     0.002533
O         0.500714    0.250714    0.322714     0.002533
BA        0.572143    0.215000    0.287857     0.002533
TI        0.607857    0.250714    0.324286     0.002533
O         0.607857    0.250714    0.357857     0.002533
O         0.607857    0.215000    0.322714     0.002533
O         0.572143    0.250714    0.322714     0.002533
BA        0.643571    0.215000    0.287857     0.002533
TI        0.679286    0.250714    0.324286     0.002533
O         0.679286    0.250714    0.357857     0.002533
O         0.679286    0.215000    0.322714     0.002533
O         0.643571    0.250714    0.322714     0.002533
BA        0.715000    0.215000    0.287857     0.002533
TI        0.750714    0.250714    0.324286     0.002533
O         0.750714    0.250714    0.357857     0.002533
O         0.750714    0.215000    0.322714     0.002533
O         0.715000    0.250714    0.322714     0.002533
BA        0.786429    0.215000    0.287857     0.002533
TI        0.822143    0.250714    0.324286     0.002533
O         0.822143    0.250714    0.357857     0.002533
O         0.786429    0.250714    0.322714     0.002533
TI        0.036429    0.322143    0.324286     0.002533
O         0.036429    0.322143    0.357857     0.002533
O         0.036429    0.286429    0.322714     0.002533
BA        0.072143    0.286429    0.287857     0.002533
TI        0.107857    0.322143    0.324286     0.002533
O         0.107857    0.322143    0.357857     0.002533
O         0.107857    0.286429    0.322714     0.002533
O         0.072143    0.322143    0.322714     0.002533
BA        0.143571    0.286429    0.287857     0.002533
TI        0.179286    0.322143    0.324286     0.002533
O         0.179286    0.322143    0.357857     0.002533
O         0.179286    0.286429    0.322714     0.002533
O         0.143571    0.322143    0.322714     0.002533
BA        0.215000    0.286429    0.287857     0.002533
TI        0.250714    0.322143    0.324286     0.002533
O         0.250714    0.322143    0.357857     0.002533
O         0.250714    0.286429    0.322714     0.002533
O         0.215000    0.322143    0.322714     0.002533
BA        0.286429    0.286429    0.287857     0.002533
TI        0.322143    0.322143    0.324286     0.002533
O         0.322143    0.322143    0.357857     0.002533
O         0.322143    0.286429    0.322714     0.002533
O         0.286429    0.322143    0.322714     0.002533
BA        0.357857    0.286429    0.287857     0.002533
TI        0.393571    0.322143    0.324286     0.002533
O         0.393571    0.322143    0.357857     0.002533
O         0.393571    0.286429    0.322714     0.002533
O         0.357857    0.322143    0.322714     0.002533
BA        0.429286    0.286429    0.287857     0.002533
TI        0.465000    0.322143    0.324286     0.002533
O         0.465000    0.322143    0.357857     0.002533
O         0.465000    0.286429    0.322714     0.002533
O         0.429286    0.322143    0.322714     0.002533
BA        0.500714    0.286429    0.287857     0.002533
TI        0.536429    0.322143    0.324286     0.002533
O         0.536429    0.322143    0.357857     0.002533
O         0.536429    0.286429    0.322714     0.002533
O         0.500714    0.322143    0.322714     0.002533
BA        0.572143    0.286429    0.287857     0.002533
TI        0.607857    0.322143    0.324286     0.002533
O         0.607857    0.322143    0.357857     0.002533
O         0.607857    0.286429    0.322714     0.002533
O         0.572143    0.322143    0.322714     0.002533
BA        0.643571    0.286429    0.287857     0.002533
TI        0.679286    0.322143    0.324286     0.002533
O         0.679286    0.322143    0.357857     0.002533
O         0.679286    0.286429    0.322714     0.002533
O         0.643571    0.322143    0.322714     0.002533
BA        0.715000    0.286429    0.287857     0.002533
TI        0.750714    0.322143    0.324286     0.002533
O         0.750714    0.322143    0.357857     0.002533
O         0.750714    0.286429    0.322714     0.002533
O         0.715000    0.322143    0.322714     0.002533
BA        0.786429    0.286429    0.287857     0.002533
TI        0.822143    0.322143    0.324286     0.002533
O         0.822143    0.322143    0.357857     0.002533
O         0.822143    0.286429    0.322714     0.002533
O         0.786429    0.322143    0.322714     0.002533
TI        0.036429    0.393571    0.324286     0.002533
O         0.036429    0.393571    0.357857     0.002533
O         0.036429    0.357857    0.322714     0.002533
O         0.000714    0.393571    0.322714     0.002533
BA        0.072143    0.357857    0.287857     0.002533
TI        0.107857    0.393571    0.324286     0.002533
O         0.107857    0.393571    0.357857     0.002533
O         0.107857    0.357857    0.322714     0.002533
O         0.072143    0.393571    0.322714     0.002533
BA        0.143571    0.357857    0.287857     0.002533
TI        0.179286    0.393571    0.324286     0.002533
O         0.179286    0.393571    0.357857     0.002533
O         0.179286    0.357857    0.322714     0.002533
O         0.143571    0.393571    0.322714     0.002533
BA        0.215000    0.357857    0.287857     0.002533
TI        0.250714    0.393571    0.324286     0.002533
O         0.250714    0.393571    0.357857     0.002533
O         0.250714    0.357857    0.322714     0.002533
O         0.215000    0.393571    0.322714     0.002533
BA        0.286429    0.357857    0.287857     0.002533
TI        0.322143    0.393571    0.324286     0.002533
O         0.322143    0.393571    0.357857     0.002533
O         0.322143    0.357857    0.322714     0.002533
O         0.286429    0.393571    0.322714     0.002533
BA        0.357857    0.357857    0.287857     0.002533
TI        0.393571    0.393571    0.324286     0.002533
O         0.393571    0.393571    0.357857     0.002533
O         0.393571    0.357857    0.322714     0.002533
O         0.357857    0.393571    0.322714     0.002533
BA        0.429286    0.357857    0.287857     0.002533
TI        0.465000    0.393571    0.324286     0.002533
O         0.465000    0.393571    0.357857     0.002533
O         0.465000    0.357857    0.322714     0.002533
O         0.429286    0.393571    0.322714     0.002533
BA        0.500714    0.357857    0.287857     0.002533
TI        0.536429    0.393571    0.324286     0.002533
O         0.536429    0.393571    0.357857     0.002533
O         0.536429    0.357857    0.322714     0.002533
O         0.500714    0.393571    0.322714     0.002533
BA        0.572143    0.357857    0.287857     0.002533
TI        0.607857    0.393571    0.324286     0.002533
O         0.607857    0.393571    0.357857     0.002533
O         0.607857    0.357857    0.322714     0.002533
O         0.572143    0.393571    0.322714     0.002533
BA        0.643571    0.357857    0.287857     0.002533
TI        0.679286    0.393571    0.324286     0.002533
O         0.679286    0.393571    0.357857     0.002533
O         0.679286    0.357857    0.322714     0.002533
O         0.643571    0.393571    0.322714     0.002533
BA        0.715000    0.357857    0.287857     0.002533
TI        0.750714    0.393571    0.324286     0.002533
O         0.750714    0.393571    0.357857     0.002533
O         0.750714    0.357857    0.322714     0.002533
O         0.715000    0.393571    0.322714     0.002533
BA        0.786429    0.357857    0.287857     0.002533
TI        0.822143    0.393571    0.324286     0.002533
O         0.822143    0.393571    0.357857     0.002533
O         0.822143    0.357857    0.322714     0.002533
O         0.786429    0.393571    0.322714     0.002533
O         0.857857    0.393571    0.322714     0.002533
TI        0.036429    0.465000    0.324286     0.002533
O         0.036429    0.465000    0.357857     0.002533
O         0.036429    0.429286    0.322714     0.002533
O         0.000714    0.465000    0.322714     0.002533
BA        0.072143    0.429286    0.287857     0.002533
TI        0.107857    0.465000    0.324286     0.002533
O         0.107857    0.465000    0.357857     0.002533
O         0.107857    0.429286    0.322714     0.002533
O         0.072143    0.465000    0.322714     0.002533
BA        0.143571    0.429286    0.287857     0.002533
TI        0.179286    0.465000    0.324286     0.002533
O         0.179286    0.465000    0.357857     0.002533
O         0.179286    0.429286    0.322714     0.002533
O         0.143571    0.465000    0.322714     0.002533
BA        0.215000    0.429286    0.287857     0.002533
TI        0.250714    0.465000    0.324286     0.002533
O         0.250714    0.465000    0.357857     0.002533
O         0.250714    0.429286    0.322714     0.002533
O         0.215000    0.465000    0.322714     0.002533
BA        0.286429    0.429286    0.287857     0.002533
TI        0.322143    0.465000    0.324286     0.002533
O         0.322143    0.465000    0.357857     0.002533
O         0.322143    0.429286    0.322714     0.002533
O         0.286429    0.465000    0.322714     0.002533
BA        0.357857    0.429286    0.287857     0.002533
TI        0.393571    0.465000    0.324286     0.002533
O         0.393571    0.465000    0.357857     0.002533
O         0.393571    0.429286    0.322714     0.002533
O         0.357857    0.465000    0.322714     0.002533
BA        0.429286    0.429286    0.287857     0.002533
TI        0.465000    0.465000    0.324286     0.002533
O         0.465000    0.465000    0.357857     0.002533
O         0.465000    0.429286    0.322714     0.002533
O         0.429286    0.465000    0.322714     0.002533
BA        0.500714    0.429286    0.287857     0.002533
TI        0.536429    0.465000    0.324286     0.002533
O         0.536429    0.465000    0.357857     0.002533
O         0.536429    0.429286    0.322714     0.002533
O         0.500714    0.465000    0.322714     0.002533
BA        0.572143    0.429286    0.287857     0.002533
TI        0.607857    0.465000    0.324286     0.002533
O         0.607857    0.465000    0.357857     0.002533
O         0.607857    0.429286    0.322714     0.002533
O         0.572143    0.465000    0.322714     0.002533
BA        0.643571    0.429286    0.287857     0.002533
TI        0.679286    0.465000    0.324286     0.002533
O         0.679286    0.465000    0.357857     0.002533
O         0.679286    0.429286    0.322714     0.002533
O         0.643571    0.465000    0.322714     0.002533
BA        0.715000    0.429286    0.287857     0.002533
TI        0.750714    0.465000    0.324286     0.002533
O         0.750714    0.465000    0.357857     0.002533
O         0.750714    0.429286    0.322714     0.002533
O         0.715000    0.465000    0.322714     0.002533
BA        0.786429    0.429286    0.287857     0.002533
TI        0.822143    0.465000    0.324286     0.002533
O         0.822143    0.465000    0.357857     0.002533
O         0.822143    0.429286    0.322714     0.002533
O         0.786429    0.465000    0.322714     0.002533
O         0.857857    0.465000    0.322714     0.002533
TI        0.036429    0.536429    0.324286     0.002533
O         0.036429    0.536429    0.357857     0.002533
O         0.036429    0.500714    0.322714     0.002533
BA        0.072143    0.500714    0.287857     0.002533
TI        0.107857    0.536429    0.324286     0.002533
O         0.107857    0.536429    0.357857     0.002533
O         0.107857    0.500714    0.322714     0.002533
O         0.072143    0.536429    0.322714     0.002533
BA        0.143571    0.500714    0.287857     0.002533
TI        0.179286    0.536429    0.324286     0.002533
O         0.179286    0.536429    0.357857     0.002533
O         0.179286    0.500714    0.322714     0.002533
O         0.143571    0.536429    0.322714     0.002533
BA        0.215000    0.500714    0.287857     0.002533
TI        0.250714    0.536429    0.324286     0.002533
O         0.250714    0.536429    0.357857     0.002533
O         0.250714    0.500714    0.322714     0.002533
O         0.215000    0.536429    0.322714     0.002533
BA        0.286429    0.500714    0.287857     0.002533
TI        0.322143    0.536429    0.324286     0.002533
O         0.322143    0.536429    0.357857     0.002533
O         0.322143    0.500714    0.322714     0.002533
O         0.286429    0.536429    0.322714     0.002533
BA        0.357857    0.500714    0.287857     0.002533
TI        0.393571    0.536429    0.324286     0.002533
O         0.393571    0.536429    0.357857     0.002533
O         0.393571    0.500714    0.322714     0.002533
O         0.357857    0.536429    0.322714     0.002533
BA        0.429286    0.500714    0.287857     0.002533
TI        0.465000    0.536429    0.324286     0.002533
O         0.465000    0.536429    0.357857     0.002533
O         0.465000    0.500714    0.322714     0.002533
O         0.429286    0.536429    0.322714     0.002533
BA        0.500714    0.500714    0.287857     0.002533
TI        0.536429    0.536429    0.324286     0.002533
O         0.536429    0.536429    0.357857     0.002533
O         0.536429    0.500714    0.322714     0.002533
O         0.500714    0.536429    0.322714     0.002533
BA        0.572143    0.500714    0.287857     0.002533
TI        0.607857    0.536429    0.324286     0.002533
O         0.607857    0.536429    0.357857     0.002533
O         0.607857    0.500714    0.322714     0.002533
O         0.572143    0.536429    0.322714     0.002533
BA        0.643571    0.500714    0.287857     0.002533
TI        0.679286    0.536429    0.324286     0.002533
O         0.679286    0.536429    0.357857     0.002533
O         0.679286    0.500714    0.322714     0.002533
O         0.643571    0.536429    0.322714     0.002533
BA        0.715000    0.500714    0.287857     0.002533
TI        0.750714    0.536429    0.324286     0.002533
O         0.750714    0.536429    0.357857     0.002533
O         0.750714    0.500714    0.322714     0.002533
O         0.715000    0.536429    0.322714     0.002533
BA        0.786429    0.500714    0.287857     0.002533
TI        0.822143    0.536429    0.324286     0.002533
O         0.822143    0.536429    0.357857     0.002533
O         0.822143    0.500714    0.322714     0.002533
O         0.786429    0.536429    0.322714     0.002533
TI        0.036429    0.607857    0.324286     0.002533
O         0.036429    0.607857    0.357857     0.002533
O         0.036429    0.572143    0.322714     0.002533
BA        0.072143    0.572143    0.287857     0.002533
TI        0.107857    0.607857    0.324286     0.002533
O         0.107857    0.607857    0.357857     0.002533
O         0.107857    0.572143    0.322714     0.002533
O         0.072143    0.607857    0.322714     0.002533
BA        0.143571    0.572143    0.287857     0.002533
TI        0.179286    0.607857    0.324286     0.002533
O         0.179286    0.607857    0.357857     0.002533
O         0.179286    0.572143    0.322714     0.002533
O         0.143571    0.607857    0.322714     0.002533
BA        0.215000    0.572143    0.287857     0.002533
TI        0.250714    0.607857    0.324286     0.002533
O         0.250714    0.607857    0.357857     0.002533
O         0.250714    0.572143    0.322714     0.002533
O         0.215000    0.607857    0.322714     0.002533
BA        0.286429    0.572143    0.287857     0.002533
TI        0.322143    0.607857    0.324286     0.002533
O         0.322143    0.607857    0.357857     0.002533
O         0.322143    0.572143    0.322714     0.002533
O         0.286429    0.607857    0.322714     0.002533
BA        0.357857    0.572143    0.287857     0.002533
TI        0.393571    0.607857    0.324286     0.002533
O         0.393571    0.607857    0.357857     0.002533
O         0.393571    0.572143    0.322714     0.002533
O         0.357857    0.607857    0.322714     0.002533
BA        0.429286    0.572143    0.287857     0.002533
TI        0.465000    0.607857    0.324286     0.002533
O         0.465000    0.607857    0.357857     0.002533
O         0.465000    0.572143    0.322714     0.002533
O         0.429286    0.607857    0.322714     0.002533
BA        0.500714    0.572143    0.287857     0.002533
TI        0.536429    0.607857    0.324286     0.002533
O         0.536429    0.607857    0.357857     0.002533
O         0.536429    0.572143    0.322714     0.002533
O         0.500714    0.607857    0.322714     0.002533
BA        0.572143    0.572143    0.287857     0.002533
TI        0.607857    0.607857    0.324286     0.002533
O         0.607857    0.607857    0.357857     0.002533
O         0.607857    0.572143    0.322714     0.002533
O         0.572143    0.607857    0.322714     0.002533
BA        0.643571    0.572143    0.287857     0.002533
TI        0.679286    0.607857    0.324286     0.002533
O         0.679286    0.607857    0.357857     0.002533
O         0.679286    0.572143    0.322714     0.002533
O         0.643571    0.607857    0.322714     0.002533
BA        0.715000    0.572143    0.287857     0.002533
TI        0.750714    0.607857    0.324286     0.002533
O         0.750714    0.607857    0.357857     0.002533
O         0.750714    0.572143    0.322714     0.002533
O         0.715000    0.607857    0.322714     0.002533
BA        0.786429    0.572143    0.287857     0.002533
TI        0.822143    0.607857    0.324286     0.002533
O         0.822143    0.607857    0.357857     0.002533
O         0.822143    0.572143    0.322714     0.002533
O         0.786429    0.607857    0.322714     0.002533
BA        0.072143    0.643571    0.287857     0.002533
TI        0.107857    0.679286    0.324286     0.002533
O         0.107857    0.679286    0.357857     0.002533
O         0.107857    0.643571    0.322714     0.002533
BA        0.143571    0.643571    0.287857     0.002533
TI        0.179286    0.679286    0.324286     0.002533
O         0.179286    0.679286    0.357857     0.002533
O         0.179286    0.643571    0.322714     0.002533
O         0.143571    0.679286    0.322714     0.002533
BA        0.215000    0.643571    0.287857     0.002533
TI        0.250714    0.679286    0.324286     0.002533
O         0.250714    0.679286    0.357857     0.002533
O         0.250714    0.643571    0.322714     0.002533
O         0.215000    0.679286    0.322714     0.002533
BA        0.286429    0.643571    0.287857     0.002533
TI        0.322143    0.679286    0.324286     0.002533
O         0.322143    0.679286    0.357857     0.002533
O         0.322143    0.643571    0.322714     0.002533
O         0.286429    0.679286    0.322714     0.002533
BA        0.357857    0.643571    0.287857     0.002533
TI        0.393571    0.679286    0.324286     0.002533
O         0.393571    0.679286    0.357857     0.002533
O         0.393571    0.643571    0.322714     0.002533
O         0.357857    0.679286    0.322714     0.002533
BA        0.429286    0.643571    0.287857     0.002533
TI        0.465000    0.679286    0.324286     0.002533
O         0.465000    0.679286    0.357857     0.002533
O         0.465000    0.643571    0.322714     0.002533
O         0.429286    0.679286    0.322714     0.002533
BA        0.500714    0.643571    0.287857     0.002533
TI        0.536429    0.679286    0.324286     0.002533
O         0.536429    0.679286    0.357857     0.002533
O         0.536429    0.643571    0.322714     0.002533
O         0.500714    0.679286    0.322714     0.002533
BA        0.572143    0.643571    0.287857     0.002533
TI        0.607857    0.679286    0.324286     0.002533
O         0.607857    0.679286    0.357857     0.002533
O         0.607857    0.643571    0.322714     0.002533
O         0.572143    0.679286    0.322714     0.002533
BA        0.643571    0.643571    0.287857     0.002533
TI        0.679286    0.679286    0.324286     0.002533
O         0.679286    0.679286    0.357857     0.002533
O         0.679286    0.643571    0.322714     0.002533
O         0.643571    0.679286    0.322714     0.002533
BA        0.715000    0.643571    0.287857     0.002533
TI        0.750714    0.679286    0.324286     0.002533
O         0.750714    0.679286    0.357857     0.002533
O         0.750714    0.643571    0.322714     0.002533
O         0.715000    0.679286    0.322714     0.002533
BA        0.786429    0.643571    0.287857     0.002533
O         0.107857    0.715000    0.322714     0.002533
BA        0.143571    0.715000    0.287857     0.002533
TI        0.179286    0.750714    0.324286     0.002533
O         0.179286    0.750714    0.357857     0.002533
O         0.179286    0.715000    0.322714     0.002533
O         0.143571    0.750714    0.322714     0.002533
BA        0.215000    0.715000    0.287857     0.002533
TI        0.250714    0.750714    0.324286     0.002533
O         0.250714    0.750714    0.357857     0.002533
O         0.250714    0.715000    0.322714     0.002533
O         0.215000    0.750714    0.322714     0.002533
BA        0.286429    0.715000    0.287857     0.002533
TI        0.322143    0.750714    0.324286     0.002533
O         0.322143    0.750714    0.357857     0.002533
O         0.322143    0.715000    0.322714     0.002533
O         0.286429    0.750714    0.322714     0.002533
BA        0.357857    0.715000    0.287857     0.002533
TI        0.393571    0.750714    0.324286     0.002533
O         0.393571    0.750714    0.357857     0.002533
O         0.393571    0.715000    0.322714     0.002533
O         0.357857    0.750714    0.322714     0.002533
BA        0.429286    0.715000    0.287857     0.002533
TI        0.465000    0.750714    0.324286     0.002533
O         0.465000    0.750714    0.357857     0.002533
O         0.465000    0.715000    0.322714     0.002533
O         0.429286    0.750714    0.322714     0.002533
BA        0.500714    0.715000    0.287857     0.002533
TI        0.536429    0.750714    0.324286     0.002533
O         0.536429    0.750714    0.357857     0.002533
O         0.536429    0.715000    0.322714     0.002533
O         0.500714    0.750714    0.322714     0.002533
BA        0.572143    0.715000    0.287857     0.002533
TI        0.607857    0.750714    0.324286     0.002533
O         0.607857    0.750714    0.357857     0.002533
O         0.607857    0.715000    0.322714     0.002533
O         0.572143    0.750714    0.322714     0.002533
BA        0.643571    0.715000    0.287857     0.002533
TI        0.679286    0.750714    0.324286     0.002533
O         0.679286    0.750714    0.357857     0.002533
O         0.679286    0.715000    0.322714     0.002533
O         0.643571    0.750714    0.322714     0.002533
BA        0.715000    0.715000    0.287857     0.002533
O         0.750714    0.715000    0.322714     0.002533
O         0.715000    0.750714    0.322714     0.002533
BA        0.215000    0.786429    0.287857     0.002533
TI        0.250714    0.822143    0.324286     0.002533
O         0.250714    0.822143    0.357857     0.002533
O         0.250714    0.786429    0.322714     0.002533
BA        0.286429    0.786429    0.287857     0.002533
TI        0.322143    0.822143    0.324286     0.002533
O         0.322143    0.822143    0.357857     0.002533
O         0.322143    0.786429    0.322714     0.002533
O         0.286429    0.822143    0.322714     0.002533
BA        0.357857    0.786429    0.287857     0.002533
TI        0.393571    0.822143    0.324286     0.002533
O         0.393571    0.822143    0.357857     0.002533
O         0.393571    0.786429    0.322714     0.002533
O         0.357857    0.822143    0.322714     0.002533
BA        0.429286    0.786429    0.287857     0.002533
TI        0.465000    0.822143    0.324286     0.002533
O         0.465000    0.822143    0.357857     0.002533
O         0.465000    0.786429    0.322714     0.002533
O         0.429286    0.822143    0.322714     0.002533
BA        0.500714    0.786429    0.287857     0.002533
TI        0.536429    0.822143    0.324286     0.002533
O         0.536429    0.822143    0.357857     0.002533
O         0.536429    0.786429    0.322714     0.002533
O         0.500714    0.822143    0.322714     0.002533
BA        0.572143    0.786429    0.287857     0.002533
TI        0.607857    0.822143    0.324286     0.002533
O         0.607857    0.822143    0.357857     0.002533
O         0.607857    0.786429    0.322714     0.002533
O         0.572143    0.822143    0.322714     0.002533
BA        0.643571    0.786429    0.287857     0.002533
O         0.393571    0.857857    0.322714     0.002533
O         0.465000    0.857857    0.322714     0.002533
TI        0.250714    0.036429    0.395714     0.002533
O         0.250714    0.036429    0.429286     0.002533
TI        0.322143    0.036429    0.395714     0.002533
O         0.322143    0.036429    0.429286     0.002533
O         0.322143    0.000714    0.394143     0.002533
O         0.286429    0.036429    0.394143     0.002533
BA        0.357857    0.000714    0.359286     0.002533
TI        0.393571    0.036429    0.395714     0.002533
O         0.393571    0.036429    0.429286     0.002533
O         0.393571    0.000714    0.394143     0.002533
O         0.357857    0.036429    0.394143     0.002533
BA        0.429286    0.000714    0.359286     0.002533
TI        0.465000    0.036429    0.395714     0.002533
O         0.465000    0.036429    0.429286     0.002533
O         0.465000    0.000714    0.394143     0.002533
O         0.429286    0.036429    0.394143     0.002533
BA        0.500714    0.000714    0.359286     0.002533
TI        0.536429    0.036429    0.395714     0.002533
O         0.536429    0.036429    0.429286     0.002533
O         0.536429    0.000714    0.394143     0.002533
O         0.500714    0.036429    0.394143     0.002533
TI        0.607857    0.036429    0.395714     0.002533
O         0.607857    0.036429    0.429286     0.002533
O         0.572143    0.036429    0.394143     0.002533
TI        0.179286    0.107857    0.395714     0.002533
O         0.179286    0.107857    0.429286     0.002533
O         0.179286    0.072143    0.394143     0.002533
O         0.143571    0.107857    0.394143     0.002533
BA        0.215000    0.072143    0.359286     0.002533
TI        0.250714    0.107857    0.395714     0.002533
O         0.250714    0.107857    0.429286     0.002533
O         0.250714    0.072143    0.394143     0.002533
O         0.215000    0.107857    0.394143     0.002533
BA        0.286429    0.072143    0.359286     0.002533
TI        0.322143    0.107857    0.395714     0.002533
O         0.322143    0.107857    0.429286     0.002533
O         0.322143    0.072143    0.394143     0.002533
O         0.286429    0.107857    0.394143     0.002533
BA        0.357857    0.072143    0.359286     0.002533
TI        0.393571    0.107857    0.395714     0.002533
O         0.393571    0.107857    0.429286     0.002533
O         0.393571    0.072143    0.394143     0.002533
O         0.357857    0.107857    0.394143     0.002533
BA        0.429286    0.072143    0.359286     0.002533
TI        0.465000    0.107857    0.395714     0.002533
O         0.465000    0.107857    0.429286     0.002533
O         0.465000    0.072143    0.394143     0.002533
O         0.429286    0.107857    0.394143     0.002533
BA        0.500714    0.072143    0.359286     0.002533
TI        0.536429    0.107857    0.395714     0.002533
O         0.536429    0.107857    0.429286     0.002533
O         0.536429    0.072143    0.394143     0.002533
O         0.500714    0.107857    0.394143     0.002533
BA        0.572143    0.072143    0.359286     0.002533
TI        0.607857    0.107857    0.395714     0.002533
O         0.607857    0.107857    0.429286     0.002533
O         0.607857    0.072143    0.394143     0.002533
O         0.572143    0.107857    0.394143     0.002533
BA        0.643571    0.072143    0.359286     0.002533
TI        0.679286    0.107857    0.395714     0.002533
O         0.679286    0.107857    0.429286     0.002533
O         0.679286    0.072143    0.394143     0.002533
O         0.643571    0.107857    0.394143     0.002533
O         0.715000    0.107857    0.394143     0.002533
TI        0.107857    0.179286    0.395714     0.002533
O         0.107857    0.179286    0.429286     0.002533
O         0.107857    0.143571    0.394143     0.002533
O         0.072143    0.179286    0.394143     0.002533
BA        0.143571    0.143571    0.359286     0.002533
TI        0.179286    0.179286    0.395714     0.002533
O         0.179286    0.179286    0.429286     0.002533
O         0.179286    0.143571    0.394143     0.002533
O         0.143571    0.179286    0.394143     0.002533
BA        0.215000    0.143571    0.359286     0.002533
TI        0.250714    0.179286    0.395714     0.002533
O         0.250714    0.179286    0.429286     0.002533
O         0.250714    0.143571    0.394143     0.002533
O         0.215000    0.179286    0.394143     0.002533
BA        0.286429    0.143571    0.359286     0.002533
TI        0.322143    0.179286    0.395714     0.002533
O         0.322143    0.179286    0.429286     0.002533
O         0.322143    0.143571    0.394143     0.002533
O         0.286429    0.179286    0.394143     0.002533
BA        0.357857    0.143571    0.359286     0.002533
TI        0.393571    0.179286    0.395714     0.002533
O         0.393571    0.179286    0.429286     0.002533
O         0.393571    0.143571    0.394143     0.002533
O         0.357857    0.179286    0.394143     0.002533
BA        0.429286    0.143571    0.359286     0.002533
TI        0.465000    0.179286    0.395714     0.002533
O         0.465000    0.179286    0.429286     0.002533
O         0.465000    0.143571    0.394143     0.002533
O         0.429286    0.179286    0.394143     0.002533
BA        0.500714    0.143571    0.359286     0.002533
TI        0.536429    0.179286    0.395714     0.002533
O         0.536429    0.179286    0.429286     0.002533
O         0.536429    0.143571    0.394143     0.002533
O         0.500714    0.179286    0.394143     0.002533
BA        0.572143    0.143571    0.359286     0.002533
TI        0.607857    0.179286    0.395714     0.002533
O         0.607857    0.179286    0.429286     0.002533
O         0.607857    0.143571    0.394143     0.002533
O         0.572143    0.179286    0.394143     0.002533
BA        0.643571    0.143571    0.359286     0.002533
TI        0.679286    0.179286    0.395714     0.002533
O         0.679286    0.179286    0.429286     0.002533
O         0.679286    0.143571    0.394143     0.002533
O         0.643571    0.179286    0.394143     0.002533
BA        0.715000    0.143571    0.359286     0.002533
TI        0.750714    0.179286    0.395714     0.002533
O         0.750714    0.179286    0.429286     0.002533
O         0.750714    0.143571    0.394143     0.002533
O         0.715000    0.179286    0.394143     0.002533
O         0.786429    0.179286    0.394143     0.002533
TI        0.036429    0.250714    0.395714     0.002533
O         0.036429    0.250714    0.429286     0.002533
BA        0.072143    0.215000    0.359286     0.002533
TI        0.107857    0.250714    0.395714     0.002533
O         0.107857    0.250714    0.429286     0.002533
O         0.107857    0.215000    0.394143     0.002533
O         0.072143    0.250714    0.394143     0.002533
BA        0.143571    0.215000    0.359286     0.002533
TI        0.179286    0.250714    0.395714     0.002533
O         0.179286    0.250714    0.429286     0.002533
O         0.179286    0.215000    0.394143     0.002533
O         0.143571    0.250714    0.394143     0.002533
BA        0.215000    0.215000    0.359286     0.002533
TI        0.250714    0.250714    0.395714     0.002533
O         0.250714    0.250714    0.429286     0.002533
O         0.250714    0.215000    0.394143     0.002533
O         0.215000    0.250714    0.394143     0.002533
BA        0.286429    0.215000    0.359286     0.002533
TI        0.322143    0.250714    0.395714     0.002533
O         0.322143    0.250714    0.429286     0.002533
O         0.322143    0.215000    0.394143     0.002533
O         0.286429    0.250714    0.394143     0.002533
BA        0.357857    0.215000    0.359286     0.002533
TI        0.393571    0.250714    0.395714     0.002533
O         0.393571    0.250714    0.429286     0.002533
O         0.393571    0.215000    0.394143     0.002533
O         0.357857    0.250714    0.394143     0.002533
BA        0.429286    0.215000    0.359286     0.002533
TI        0.465000    0.250714    0.395714     0.002533
O         0.465000    0.250714    0.429286     0.002533
O         0.465000    0.215000    0.394143     0.002533
O         0.429286    0.250714    0.394143     0.002533
BA        0.500714    0.215000    0.359286     0.002533
TI        0.536429    0.250714    0.395714     0.002533
O         0.536429    0.250714    0.429286     0.002533
O         0.536429    0.215000    0.394143     0.002533
O         0.500714    0.250714    0.394143     0.002533
BA        0.572143    0.215000    0.359286     0.002533
TI        0.607857    0.250714    0.395714     0.002533
O         0.607857    0.250714    0.429286     0.002533
O         0.607857    0.215000    0.394143     0.002533
O         0.572143    0.250714    0.394143     0.002533
BA        0.643571    0.215000    0.359286     0.002533
TI        0.679286    0.250714    0.395714     0.002533
O         0.679286    0.250714    0.429286     0.002533
O         0.679286    0.215000    0.394143     0.002533
O         0.643571    0.250714    0.394143     0.002533
BA        0.715000    0.215000    0.359286     0.002533
TI        0.750714    0.250714    0.395714     0.002533
O         0.750714    0.250714    0.429286     0.002533
O         0.750714    0.215000    0.394143     0.002533
O         0.715000    0.250714    0.394143     0.002533
BA        0.786429    0.215000    0.359286     0.002533
TI        0.822143    0.250714    0.395714     0.002533
O         0.822143    0.250714    0.429286     0.002533
O         0.786429    0.250714    0.394143     0.002533
TI        0.036429    0.322143    0.395714     0.002533
O         0.036429    0.322143    0.429286     0.002533
O         0.036429    0.286429    0.394143     0.002533
O         0.000714    0.322143    0.394143     0.002533
BA        0.072143    0.286429    0.359286     0.002533
TI        0.107857    0.322143    0.395714     0.002533
O         0.107857    0.322143    0.429286     0.002533
O         0.107857    0.286429    0.394143     0.002533
O         0.072143    0.322143    0.394143     0.002533
BA        0.143571    0.286429    0.359286     0.002533
TI        0.179286    0.322143    0.395714     0.002533
O         0.179286    0.322143    0.429286     0.002533
O         0.179286    0.286429    0.394143     0.002533
O         0.143571    0.322143    0.394143     0.002533
BA        0.215000    0.286429    0.359286     0.002533
TI        0.250714    0.322143    0.395714     0.002533
O         0.250714    0.322143    0.429286     0.002533
O         0.250714    0.286429    0.394143     0.002533
O         0.215000    0.322143    0.394143     0.002533
BA        0.286429    0.286429    0.359286     0.002533
TI        0.322143    0.322143    0.395714     0.002533
O         0.322143    0.322143    0.429286     0.002533
O         0.322143    0.286429    0.394143     0.002533
O         0.286429    0.322143    0.394143     0.002533
BA        0.357857    0.286429    0.359286     0.002533
TI        0.393571    0.322143    0.395714     0.002533
O         0.393571    0.322143    0.429286     0.002533
O         0.393571    0.286429    0.394143     0.002533
O         0.357857    0.322143    0.394143     0.002533
BA        0.429286    0.286429    0.359286     0.002533
TI        0.465000    0.322143    0.395714     0.002533
O         0.465000    0.322143    0.429286     0.002533
O         0.465000    0.286429    0.394143     0.002533
O         0.429286    0.322143    0.394143     0.002533
BA        0.500714    0.286429    0.359286     0.002533
TI        0.536429    0.322143    0.395714     0.002533
O         0.536429    0.322143    0.429286     0.002533
O         0.536429    0.286429    0.394143     0.002533
O         0.500714    0.322143    0.394143     0.002533
BA        0.572143    0.286429    0.359286     0.002533
TI        0.607857    0.322143    0.395714     0.002533
O         0.607857    0.322143    0.429286     0.002533
O         0.607857    0.286429    0.394143     0.002533
O         0.572143    0.322143    0.394143     0.002533
BA        0.643571    0.286429    0.359286     0.002533
TI        0.679286    0.322143    0.395714     0.002533
O         0.679286    0.322143    0.429286     0.002533
O         0.679286    0.286429    0.394143     0.002533
O         0.643571    0.322143    0.394143     0.002533
BA        0.715000    0.286429    0.359286     0.002533
TI        0.750714    0.322143    0.395714     0.002533
O         0.750714    0.322143    0.429286     0.002533
O         0.750714    0.286429    0.394143     0.002533
O         0.715000    0.322143    0.394143     0.002533
BA        0.786429    0.286429    0.359286     0.002533
TI        0.822143    0.322143    0.395714     0.002533
O         0.822143    0.322143    0.429286     0.002533
O         0.822143    0.286429    0.394143     0.002533
O         0.786429    0.322143    0.394143     0.002533
O         0.857857    0.322143    0.394143     0.002533
BA        0.000714    0.357857    0.359286     0.002533
TI        0.036429    0.393571    0.395714     0.002533
O         0.036429    0.393571    0.429286     0.002533
O         0.036429    0.357857    0.394143     0.002533
O         0.000714    0.393571    0.394143     0.002533
BA        0.072143    0.357857    0.359286     0.002533
TI        0.107857    0.393571    0.395714     0.002533
O         0.107857    0.393571    0.429286     0.002533
O         0.107857    0.357857    0.394143     0.002533
O         0.072143    0.393571    0.394143     0.002533
BA        0.143571    0.357857    0.359286     0.002533
TI        0.179286    0.393571    0.395714     0.002533
O         0.179286    0.393571    0.429286     0.002533
O         0.179286    0.357857    0.394143     0.002533
O         0.143571    0.393571    0.394143     0.002533
BA        0.215000    0.357857    0.359286     0.002533
TI        0.250714    0.393571    0.395714     0.002533
O         0.250714    0.393571    0.429286     0.002533
O         0.250714    0.357857    0.394143     0.002533
O         0.215000    0.393571    0.394143     0.002533
BA        0.286429    0.357857    0.359286     0.002533
TI        0.322143    0.393571    0.395714     0.002533
O         0.322143    0.393571    0.429286     0.002533
O         0.322143    0.357857    0.394143     0.002533
O         0.286429    0.393571    0.394143     0.002533
BA        0.357857    0.357857    0.359286     0.002533
TI        0.393571    0.393571    0.395714     0.002533
O         0.393571    0.393571    0.429286     0.002533
O         0.393571    0.357857    0.394143     0.002533
O         0.357857    0.393571    0.394143     0.002533
BA        0.429286    0.357857    0.359286     0.002533
TI        0.465000    0.393571    0.395714     0.002533
O         0.465000    0.393571    0.429286     0.002533
O         0.465000    0.357857    0.394143     0.002533
O         0.429286    0.393571    0.394143     0.002533
BA        0.500714    0.357857    0.359286     0.002533
TI        0.536429    0.393571    0.395714     0.002533
O         0.536429    0.393571    0.429286     0.002533
O         0.536429    0.357857    0.394143     0.002533
O         0.500714    0.393571    0.394143     0.002533
BA        0.572143    0.357857    0.359286     0.002533
TI        0.607857    0.393571    0.395714     0.002533
O         0.607857    0.393571    0.429286     0.002533
O         0.607857    0.357857    0.394143     0.002533
O         0.572143    0.393571    0.394143     0.002533
BA        0.643571    0.357857    0.359286     0.002533
TI        0.679286    0.393571    0.395714     0.002533
O         0.679286    0.393571    0.429286     0.002533
O         0.679286    0.357857    0.394143     0.002533
O         0.643571    0.393571    0.394143     0.002533
BA        0.715000    0.357857    0.359286     0.002533
TI        0.750714    0.393571    0.395714     0.002533
O         0.750714    0.393571    0.429286     0.002533
O         0.750714    0.357857    0.394143     0.002533
O         0.715000    0.393571    0.394143     0.002533
BA        0.786429    0.357857    0.359286     0.002533
TI        0.822143    0.393571    0.395714     0.002533
O         0.822143    0.393571    0.429286     0.002533
O         0.822143    0.357857    0.394143     0.002533
O         0.786429    0.393571    0.394143     0.002533
BA        0.857857    0.357857    0.359286     0.002533
O         0.857857    0.393571    0.394143     0.002533
BA        0.000714    0.429286    0.359286     0.002533
TI        0.036429    0.465000    0.395714     0.002533
O         0.036429    0.465000    0.429286     0.002533
O         0.036429    0.429286    0.394143     0.002533
O         0.000714    0.465000    0.394143     0.002533
BA        0.072143    0.429286    0.359286     0.002533
TI        0.107857    0.465000    0.395714     0.002533
O         0.107857    0.465000    0.429286     0.002533
O         0.107857    0.429286    0.394143     0.002533
O         0.072143    0.465000    0.394143     0.002533
BA        0.143571    0.429286    0.359286     0.002533
TI        0.179286    0.465000    0.395714     0.002533
O         0.179286    0.465000    0.429286     0.002533
O         0.179286    0.429286    0.394143     0.002533
O         0.143571    0.465000    0.394143     0.002533
BA        0.215000    0.429286    0.359286     0.002533
TI        0.250714    0.465000    0.395714     0.002533
O         0.250714    0.465000    0.429286     0.002533
O         0.250714    0.429286    0.394143     0.002533
O         0.215000    0.465000    0.394143     0.002533
BA        0.286429    0.429286    0.359286     0.002533
TI        0.322143    0.465000    0.395714     0.002533
O         0.322143    0.465000    0.429286     0.002533
O         0.322143    0.429286    0.394143     0.002533
O         0.286429    0.465000    0.394143     0.002533
BA        0.357857    0.429286    0.359286     0.002533
TI        0.393571    0.465000    0.395714     0.002533
O         0.393571    0.465000    0.429286     0.002533
O         0.393571    0.429286    0.394143     0.002533
O         0.357857    0.465000    0.394143     0.002533
BA        0.429286    0.429286    0.359286     0.002533
TI        0.465000    0.465000    0.395714     0.002533
O         0.465000    0.465000    0.429286     0.002533
O         0.465000    0.429286    0.394143     0.002533
O         0.429286    0.465000    0.394143     0.002533
BA        0.500714    0.429286    0.359286     0.002533
TI        0.536429    0.465000    0.395714     0.002533
O         0.536429    0.465000    0.429286     0.002533
O         0.536429    0.429286    0.394143     0.002533
O         0.500714    0.465000    0.394143     0.002533
BA        0.572143    0.429286    0.359286     0.002533
TI        0.607857    0.465000    0.395714     0.002533
O         0.607857    0.465000    0.429286     0.002533
O         0.607857    0.429286    0.394143     0.002533
O         0.572143    0.465000    0.394143     0.002533
BA        0.643571    0.429286    0.359286     0.002533
TI        0.679286    0.465000    0.395714     0.002533
O         0.679286    0.465000    0.429286     0.002533
O         0.679286    0.429286    0.394143     0.002533
O         0.643571    0.465000    0.394143     0.002533
BA        0.715000    0.429286    0.359286     0.002533
TI        0.750714    0.465000    0.395714     0.002533
O         0.750714    0.465000    0.429286     0.002533
O         0.750714    0.429286    0.394143     0.002533
O         0.715000    0.465000    0.394143     0.002533
BA        0.786429    0.429286    0.359286     0.002533
TI        0.822143    0.465000    0.395714     0.002533
O         0.822143    0.465000    0.429286     0.002533
O         0.822143    0.429286    0.394143     0.002533
O         0.786429    0.465000    0.394143     0.002533
BA        0.857857    0.429286    0.359286     0.002533
O         0.857857    0.465000    0.394143     0.002533
BA        0.000714    0.500714    0.359286     0.002533
TI        0.036429    0.536429    0.395714     0.002533
O         0.036429    0.536429    0.429286     0.002533
O         0.036429    0.500714    0.394143     0.002533
O         0.000714    0.536429    0.394143     0.002533
BA        0.072143    0.500714    0.359286     0.002533
TI        0.107857    0.536429    0.395714     0.002533
O         0.107857    0.536429    0.429286     0.002533
O         0.107857    0.500714    0.394143     0.002533
O         0.072143    0.536429    0.394143     0.002533
BA        0.143571    0.500714    0.359286     0.002533
TI        0.179286    0.536429    0.395714     0.002533
O         0.179286    0.536429    0.429286     0.002533
O         0.179286    0.500714    0.394143     0.002533
O         0.143571    0.536429    0.394143     0.002533
BA        0.215000    0.500714    0.359286     0.002533
TI        0.250714    0.536429    0.395714     0.002533
O         0.250714    0.536429    0.429286     0.002533
O         0.250714    0.500714    0.394143     0.002533
O         0.215000    0.536429    0.394143     0.002533
BA        0.286429    0.500714    0.359286     0.002533
TI        0.322143    0.536429    0.395714     0.002533
O         0.322143    0.536429    0.429286     0.002533
O         0.322143    0.500714    0.394143     0.002533
O         0.286429    0.536429    0.394143     0.002533
BA        0.357857    0.500714    0.359286     0.002533
TI        0.393571    0.536429    0.395714     0.002533
O         0.393571    0.536429    0.429286     0.002533
O         0.393571    0.500714    0.394143     0.002533
O         0.357857    0.536429    0.394143     0.002533
BA        0.429286    0.500714    0.359286     0.002533
TI        0.465000    0.536429    0.395714     0.002533
O         0.465000    0.536429    0.429286     0.002533
O         0.465000    0.500714    0.394143     0.002533
O         0.429286    0.536429    0.394143     0.002533
BA        0.500714    0.500714    0.359286     0.002533
TI        0.536429    0.536429    0.395714     0.002533
O         0.536429    0.536429    0.429286     0.002533
O         0.536429    0.500714    0.394143     0.002533
O         0.500714    0.536429    0.394143     0.002533
BA        0.572143    0.500714    0.359286     0.002533
TI        0.607857    0.536429    0.395714     0.002533
O         0.607857    0.536429    0.429286     0.002533
O         0.607857    0.500714    0.394143     0.002533
O         0.572143    0.536429    0.394143     0.002533
BA        0.643571    0.500714    0.359286     0.002533
TI        0.679286    0.536429    0.395714     0.002533
O         0.679286    0.536429    0.429286     0.002533
O         0.679286    0.500714    0.394143     0.002533
O         0.643571    0.536429    0.394143     0.002533
BA        0.715000    0.500714    0.359286     0.002533
TI        0.750714    0.536429    0.395714     0.002533
O         0.750714    0.536429    0.429286     0.002533
O         0.750714    0.500714    0.394143     0.002533
O         0.715000    0.536429    0.394143     0.002533
BA        0.786429    0.500714    0.359286     0.002533
TI        0.822143    0.536429    0.395714     0.002533
O         0.822143    0.536429    0.429286     0.002533
O         0.822143    0.500714    0.394143     0.002533
O         0.786429    0.536429    0.394143     0.002533
BA        0.857857    0.500714    0.359286     0.002533
O         0.857857    0.536429    0.394143     0.002533
TI        0.036429    0.607857    0.395714     0.002533
O         0.036429    0.607857    0.429286     0.002533
O         0.036429    0.572143    0.394143     0.002533
BA        0.072143    0.572143    0.359286     0.002533
TI        0.107857    0.607857    0.395714     0.002533
O         0.107857    0.607857    0.429286     0.002533
O         0.107857    0.572143    0.394143     0.002533
O         0.072143    0.607857    0.394143     0.002533
BA        0.143571    0.572143    0.359286     0.002533
TI        0.179286    0.607857    0.395714     0.002533
O         0.179286    0.607857    0.429286     0.002533
O         0.179286    0.572143    0.394143     0.002533
O         0.143571    0.607857    0.394143     0.002533
BA        0.215000    0.572143    0.359286     0.002533
TI        0.250714    0.607857    0.395714     0.002533
O         0.250714    0.607857    0.429286     0.002533
O         0.250714    0.572143    0.394143     0.002533
O         0.215000    0.607857    0.394143     0.002533
BA        0.286429    0.572143    0.359286     0.002533
TI        0.322143    0.607857    0.395714     0.002533
O         0.322143    0.607857    0.429286     0.002533
O         0.322143    0.572143    0.394143     0.002533
O         0.286429    0.607857    0.394143     0.002533
BA        0.357857    0.572143    0.359286     0.002533
TI        0.393571    0.607857    0.395714     0.002533
O         0.393571    0.607857    0.429286     0.002533
O         0.393571    0.572143    0.394143     0.002533
O         0.357857    0.607857    0.394143     0.002533
BA        0.429286    0.572143    0.359286     0.002533
TI        0.465000    0.607857    0.395714     0.002533
O         0.465000    0.607857    0.429286     0.002533
O         0.465000    0.572143    0.394143     0.002533
O         0.429286    0.607857    0.394143     0.002533
BA        0.500714    0.572143    0.359286     0.002533
TI        0.536429    0.607857    0.395714     0.002533
O         0.536429    0.607857    0.429286     0.002533
O         0.536429    0.572143    0.394143     0.002533
O         0.500714    0.607857    0.394143     0.002533
BA        0.572143    0.572143    0.359286     0.002533
TI        0.607857    0.607857    0.395714     0.002533
O         0.607857    0.607857    0.429286     0.002533
O         0.607857    0.572143    0.394143     0.002533
O         0.572143    0.607857    0.394143     0.002533
BA        0.643571    0.572143    0.359286     0.002533
TI        0.679286    0.607857    0.395714     0.002533
O         0.679286    0.607857    0.429286     0.002533
O         0.679286    0.572143    0.394143     0.002533
O         0.643571    0.607857    0.394143     0.002533
BA        0.715000    0.572143    0.359286     0.002533
TI        0.750714    0.607857    0.395714     0.002533
O         0.750714    0.607857    0.429286     0.002533
O         0.750714    0.572143    0.394143     0.002533
O         0.715000    0.607857    0.394143     0.002533
BA        0.786429    0.572143    0.359286     0.002533
TI        0.822143    0.607857    0.395714     0.002533
O         0.822143    0.607857    0.429286     0.002533
O         0.822143    0.572143    0.394143     0.002533
O         0.786429    0.607857    0.394143     0.002533
BA        0.072143    0.643571    0.359286     0.002533
TI        0.107857    0.679286    0.395714     0.002533
O         0.107857    0.679286    0.429286     0.002533
O         0.107857    0.643571    0.394143     0.002533
O         0.072143    0.679286    0.394143     0.002533
BA        0.143571    0.643571    0.359286     0.002533
TI        0.179286    0.679286    0.395714     0.002533
O         0.179286    0.679286    0.429286     0.002533
O         0.179286    0.643571    0.394143     0.002533
O         0.143571    0.679286    0.394143     0.002533
BA        0.215000    0.643571    0.359286     0.002533
TI        0.250714    0.679286    0.395714     0.002533
O         0.250714    0.679286    0.429286     0.002533
O         0.250714    0.643571    0.394143     0.002533
O         0.215000    0.679286    0.394143     0.002533
BA        0.286429    0.643571    0.359286     0.002533
TI        0.322143    0.679286    0.395714     0.002533
O         0.322143    0.679286    0.429286     0.002533
O         0.322143    0.643571    0.394143     0.002533
O         0.286429    0.679286    0.394143     0.002533
BA        0.357857    0.643571    0.359286     0.002533
TI        0.393571    0.679286    0.395714     0.002533
O         0.393571    0.679286    0.429286     0.002533
O         0.393571    0.643571    0.394143     0.002533
O         0.357857    0.679286    0.394143     0.002533
BA        0.429286    0.643571    0.359286     0.002533
TI        0.465000    0.679286    0.395714     0.002533
O         0.465000    0.679286    0.429286     0.002533
O         0.465000    0.643571    0.394143     0.002533
O         0.429286    0.679286    0.394143     0.002533
BA        0.500714    0.643571    0.359286     0.002533
TI        0.536429    0.679286    0.395714     0.002533
O         0.536429    0.679286    0.429286     0.002533
O         0.536429    0.643571    0.394143     0.002533
O         0.500714    0.679286    0.394143     0.002533
BA        0.572143    0.643571    0.359286     0.002533
TI        0.607857    0.679286    0.395714     0.002533
O         0.607857    0.679286    0.429286     0.002533
O         0.607857    0.643571    0.394143     0.002533
O         0.572143    0.679286    0.394143     0.002533
BA        0.643571    0.643571    0.359286     0.002533
TI        0.679286    0.679286    0.395714     0.002533
O         0.679286    0.679286    0.429286     0.002533
O         0.679286    0.643571    0.394143     0.002533
O         0.643571    0.679286    0.394143     0.002533
BA        0.715000    0.643571    0.359286     0.002533
TI        0.750714    0.679286    0.395714     0.002533
O         0.750714    0.679286    0.429286     0.002533
O         0.750714    0.643571    0.394143     0.002533
O         0.715000    0.679286    0.394143     0.002533
BA        0.786429    0.643571    0.359286     0.002533
O         0.786429    0.679286    0.394143     0.002533
O         0.107857    0.715000    0.394143     0.002533
BA        0.143571    0.715000    0.359286     0.002533
TI        0.179286    0.750714    0.395714     0.002533
O         0.179286    0.750714    0.429286     0.002533
O         0.179286    0.715000    0.394143     0.002533
O         0.143571    0.750714    0.394143     0.002533
BA        0.215000    0.715000    0.359286     0.002533
TI        0.250714    0.750714    0.395714     0.002533
O         0.250714    0.750714    0.429286     0.002533
O         0.250714    0.715000    0.394143     0.002533
O         0.215000    0.750714    0.394143     0.002533
BA        0.286429    0.715000    0.359286     0.002533
TI        0.322143    0.750714    0.395714     0.002533
O         0.322143    0.750714    0.429286     0.002533
O         0.322143    0.715000    0.394143     0.002533
O         0.286429    0.750714    0.394143     0.002533
BA        0.357857    0.715000    0.359286     0.002533
TI        0.393571    0.750714    0.395714     0.002533
O         0.393571    0.750714    0.429286     0.002533
O         0.393571    0.715000    0.394143     0.002533
O         0.357857    0.750714    0.394143     0.002533
BA        0.429286    0.715000    0.359286     0.002533
TI        0.465000    0.750714    0.395714     0.002533
O         0.465000    0.750714    0.429286     0.002533
O         0.465000    0.715000    0.394143     0.002533
O         0.429286    0.750714    0.394143     0.002533
BA        0.500714    0.715000    0.359286     0.002533
TI        0.536429    0.750714    0.395714     0.002533
O         0.536429    0.750714    0.429286     0.002533
O         0.536429    0.715000    0.394143     0.002533
O         0.500714    0.750714    0.394143     0.002533
BA        0.572143    0.715000    0.359286     0.002533
TI        0.607857    0.750714    0.395714     0.002533
O         0.607857    0.750714    0.429286     0.002533
O         0.607857    0.715000    0.394143     0.002533
O         0.572143    0.750714    0.394143     0.002533
BA        0.643571    0.715000    0.359286     0.002533
TI        0.679286    0.750714    0.395714     0.002533
O         0.679286    0.750714    0.429286     0.002533
O         0.679286    0.715000    0.394143     0.002533
O         0.643571    0.750714    0.394143     0.002533
BA        0.715000    0.715000    0.359286     0.002533
O         0.750714    0.715000    0.394143     0.002533
O         0.715000    0.750714    0.394143     0.002533
O         0.179286    0.786429    0.394143     0.002533
BA        0.215000    0.786429    0.359286     0.002533
TI        0.250714    0.822143    0.395714     0.002533
O         0.250714    0.822143    0.429286     0.002533
O         0.250714    0.786429    0.394143     0.002533
BA        0.286429    0.786429    0.359286     0.002533
TI        0.322143    0.822143    0.395714     0.002533
O         0.322143    0.822143    0.429286     0.002533
O         0.322143    0.786429    0.394143     0.002533
O         0.286429    0.822143    0.394143     0.002533
BA        0.357857    0.786429    0.359286     0.002533
TI        0.393571    0.822143    0.395714     0.002533
O         0.393571    0.822143    0.429286     0.002533
O         0.393571    0.786429    0.394143     0.002533
O         0.357857    0.822143    0.394143     0.002533
BA        0.429286    0.786429    0.359286     0.002533
TI        0.465000    0.822143    0.395714     0.002533
O         0.465000    0.822143    0.429286     0.002533
O         0.465000    0.786429    0.394143     0.002533
O         0.429286    0.822143    0.394143     0.002533
BA        0.500714    0.786429    0.359286     0.002533
TI        0.536429    0.822143    0.395714     0.002533
O         0.536429    0.822143    0.429286     0.002533
O         0.536429    0.786429    0.394143     0.002533
O         0.500714    0.822143    0.394143     0.002533
BA        0.572143    0.786429    0.359286     0.002533
TI        0.607857    0.822143    0.395714     0.002533
O         0.607857    0.822143    0.429286     0.002533
O         0.607857    0.786429    0.394143     0.002533
O         0.572143    0.822143    0.394143     0.002533
BA        0.643571    0.786429    0.359286     0.002533
O         0.679286    0.786429    0.394143     0.002533
O         0.322143    0.857857    0.394143     0.002533
BA        0.357857    0.857857    0.359286     0.002533
O         0.393571    0.857857    0.394143     0.002533
BA        0.429286    0.857857    0.359286     0.002533
O         0.465000    0.857857    0.394143     0.002533
BA        0.500714    0.857857    0.359286     0.002533
O         0.536429    0.857857    0.394143     0.002533
TI        0.250714    0.036429    0.467143     0.002533
O         0.250714    0.036429    0.500714     0.002533
TI        0.322143    0.036429    0.467143     0.002533
O         0.322143    0.036429    0.500714     0.002533
O         0.322143    0.000714    0.465571     0.002533
O         0.286429    0.036429    0.465571     0.002533
BA        0.357857    0.000714    0.430714     0.002533
TI        0.393571    0.036429    0.467143     0.002533
O         0.393571    0.036429    0.500714     0.002533
O         0.393571    0.000714    0.465571     0.002533
O         0.357857    0.036429    0.465571     0.002533
BA        0.429286    0.000714    0.430714     0.002533
TI        0.465000    0.036429    0.467143     0.002533
O         0.465000    0.036429    0.500714     0.002533
O         0.465000    0.000714    0.465571     0.002533
O         0.429286    0.036429    0.465571     0.002533
BA        0.500714    0.000714    0.430714     0.002533
TI        0.536429    0.036429    0.467143     0.002533
O         0.536429    0.036429    0.500714     0.002533
O         0.536429    0.000714    0.465571     0.002533
O         0.500714    0.036429    0.465571     0.002533
TI        0.607857    0.036429    0.467143     0.002533
O         0.607857    0.036429    0.500714     0.002533
O         0.572143    0.036429    0.465571     0.002533
TI        0.179286    0.107857    0.467143     0.002533
O         0.179286    0.107857    0.500714     0.002533
O         0.179286    0.072143    0.465571     0.002533
O         0.143571    0.107857    0.465571     0.002533
BA        0.215000    0.072143    0.430714     0.002533
TI        0.250714    0.107857    0.467143     0.002533
O         0.250714    0.107857    0.500714     0.002533
O         0.250714    0.072143    0.465571     0.002533
O         0.215000    0.107857    0.465571     0.002533
BA        0.286429    0.072143    0.430714     0.002533
TI        0.322143    0.107857    0.467143     0.002533
O         0.322143    0.107857    0.500714     0.002533
O         0.322143    0.072143    0.465571     0.002533
O         0.286429    0.107857    0.465571     0.002533
BA        0.357857    0.072143    0.430714     0.002533
TI        0.393571    0.107857    0.467143     0.002533
O         0.393571    0.107857    0.500714     0.002533
O         0.393571    0.072143    0.465571     0.002533
O         0.357857    0.107857    0.465571     0.002533
BA        0.429286    0.072143    0.430714     0.002533
TI        0.465000    0.107857    0.467143     0.002533
O         0.465000    0.107857    0.500714     0.002533
O         0.465000    0.072143    0.465571     0.002533
O         0.429286    0.107857    0.465571     0.002533
BA        0.500714    0.072143    0.430714     0.002533
TI        0.536429    0.107857    0.467143     0.002533
O         0.536429    0.107857    0.500714     0.002533
O         0.536429    0.072143    0.465571     0.002533
O         0.500714    0.107857    0.465571     0.002533
BA        0.572143    0.072143    0.430714     0.002533
TI        0.607857    0.107857    0.467143     0.002533
O         0.607857    0.107857    0.500714     0.002533
O         0.607857    0.072143    0.465571     0.002533
O         0.572143    0.107857    0.465571     0.002533
BA        0.643571    0.072143    0.430714     0.002533
TI        0.679286    0.107857    0.467143     0.002533
O         0.679286    0.107857    0.500714     0.002533
O         0.679286    0.072143    0.465571     0.002533
O         0.643571    0.107857    0.465571     0.002533
O         0.715000    0.107857    0.465571     0.002533
TI        0.107857    0.179286    0.467143     0.002533
O         0.107857    0.179286    0.500714     0.002533
O         0.107857    0.143571    0.465571     0.002533
O         0.072143    0.179286    0.465571     0.002533
BA        0.143571    0.143571    0.430714     0.002533
TI        0.179286    0.179286    0.467143     0.002533
O         0.179286    0.179286    0.500714     0.002533
O         0.179286    0.143571    0.465571     0.002533
O         0.143571    0.179286    0.465571     0.002533
BA        0.215000    0.143571    0.430714     0.002533
TI        0.250714    0.179286    0.467143     0.002533
O         0.250714    0.179286    0.500714     0.002533
O         0.250714    0.143571    0.465571     0.002533
O         0.215000    0.179286    0.465571     0.002533
BA        0.286429    0.143571    0.430714     0.002533
TI        0.322143    0.179286    0.467143     0.002533
O         0.322143    0.179286    0.500714     0.002533
O         0.322143    0.143571    0.465571     0.002533
O         0.286429    0.179286    0.465571     0.002533
BA        0.357857    0.143571    0.430714     0.002533
TI        0.393571    0.179286    0.467143     0.002533
O         0.393571    0.179286    0.500714     0.002533
O         0.393571    0.143571    0.465571     0.002533
O         0.357857    0.179286    0.465571     0.002533
BA        0.429286    0.143571    0.430714     0.002533
TI        0.465000    0.179286    0.467143     0.002533
O         0.465000    0.179286    0.500714     0.002533
O         0.465000    0.143571    0.465571     0.002533
O         0.429286    0.179286    0.465571     0.002533
BA        0.500714    0.143571    0.430714     0.002533
TI        0.536429    0.179286    0.467143     0.002533
O         0.536429    0.179286    0.500714     0.002533
O         0.536429    0.143571    0.465571     0.002533
O         0.500714    0.179286    0.465571     0.002533
BA        0.572143    0.143571    0.430714     0.002533
TI        0.607857    0.179286    0.467143     0.002533
O         0.607857    0.179286    0.500714     0.002533
O         0.607857    0.143571    0.465571     0.002533
O         0.572143    0.179286    0.465571     0.002533
BA        0.643571    0.143571    0.430714     0.002533
TI        0.679286    0.179286    0.467143     0.002533
O         0.679286    0.179286    0.500714     0.002533
O         0.679286    0.143571    0.465571     0.002533
O         0.643571    0.179286    0.465571     0.002533
BA        0.715000    0.143571    0.430714     0.002533
TI        0.750714    0.179286    0.467143     0.002533
O         0.750714    0.179286    0.500714     0.002533
O         0.750714    0.143571    0.465571     0.002533
O         0.715000    0.179286    0.465571     0.002533
O         0.786429    0.179286    0.465571     0.002533
TI        0.036429    0.250714    0.467143     0.002533
O         0.036429    0.250714    0.500714     0.002533
BA        0.072143    0.215000    0.430714     0.002533
TI        0.107857    0.250714    0.467143     0.002533
O         0.107857    0.250714    0.500714     0.002533
O         0.107857    0.215000    0.465571     0.002533
O         0.072143    0.250714    0.465571     0.002533
BA        0.143571    0.215000    0.430714     0.002533
TI        0.179286    0.250714    0.467143     0.002533
O         0.179286    0.250714    0.500714     0.002533
O         0.179286    0.215000    0.465571     0.002533
O         0.143571    0.250714    0.465571     0.002533
BA        0.215000    0.215000    0.430714     0.002533
TI        0.250714    0.250714    0.467143     0.002533
O         0.250714    0.250714    0.500714     0.002533
O         0.250714    0.215000    0.465571     0.002533
O         0.215000    0.250714    0.465571     0.002533
BA        0.286429    0.215000    0.430714     0.002533
TI        0.322143    0.250714    0.467143     0.002533
O         0.322143    0.250714    0.500714     0.002533
O         0.322143    0.215000    0.465571     0.002533
O         0.286429    0.250714    0.465571     0.002533
BA        0.357857    0.215000    0.430714     0.002533
TI        0.393571    0.250714    0.467143     0.002533
O         0.393571    0.250714    0.500714     0.002533
O         0.393571    0.215000    0.465571     0.002533
O         0.357857    0.250714    0.465571     0.002533
BA        0.429286    0.215000    0.430714     0.002533
TI        0.465000    0.250714    0.467143     0.002533
O         0.465000    0.250714    0.500714     0.002533
O         0.465000    0.215000    0.465571     0.002533
O         0.429286    0.250714    0.465571     0.002533
BA        0.500714    0.215000    0.430714     0.002533
TI        0.536429    0.250714    0.467143     0.002533
O         0.536429    0.250714    0.500714     0.002533
O         0.536429    0.215000    0.465571     0.002533
O         0.500714    0.250714    0.465571     0.002533
BA        0.572143    0.215000    0.430714     0.002533
TI        0.607857    0.250714    0.467143     0.002533
O         0.607857    0.250714    0.500714     0.002533
O         0.607857    0.215000    0.465571     0.002533
O         0.572143    0.250714    0.465571     0.002533
BA        0.643571    0.215000    0.430714     0.002533
TI        0.679286    0.250714    0.467143     0.002533
O         0.679286    0.250714    0.500714     0.002533
O         0.679286    0.215000    0.465571     0.002533
O         0.643571    0.250714    0.465571     0.002533
BA        0.715000    0.215000    0.430714     0.002533
TI        0.750714    0.250714    0.467143     0.002533
O         0.750714    0.250714    0.500714     0.002533
O         0.750714    0.215000    0.465571     0.002533
O         0.715000    0.250714    0.465571     0.002533
BA        0.786429    0.215000    0.430714     0.002533
TI        0.822143    0.250714    0.467143     0.002533
O         0.822143    0.250714    0.500714     0.002533
O         0.786429    0.250714    0.465571     0.002533
TI        0.036429    0.322143    0.467143     0.002533
O         0.036429    0.322143    0.500714     0.002533
O         0.036429    0.286429    0.465571     0.002533
O         0.000714    0.322143    0.465571     0.002533
BA        0.072143    0.286429    0.430714     0.002533
TI        0.107857    0.322143    0.467143     0.002533
O         0.107857    0.322143    0.500714     0.002533
O         0.107857    0.286429    0.465571     0.002533
O         0.072143    0.322143    0.465571     0.002533
BA        0.143571    0.286429    0.430714     0.002533
TI        0.179286    0.322143    0.467143     0.002533
O         0.179286    0.322143    0.500714     0.002533
O         0.179286    0.286429    0.465571     0.002533
O         0.143571    0.322143    0.465571     0.002533
BA        0.215000    0.286429    0.430714     0.002533
TI        0.250714    0.322143    0.467143     0.002533
O         0.250714    0.322143    0.500714     0.002533
O         0.250714    0.286429    0.465571     0.002533
O         0.215000    0.322143    0.465571     0.002533
BA        0.286429    0.286429    0.430714     0.002533
TI        0.322143    0.322143    0.467143     0.002533
O         0.322143    0.322143    0.500714     0.002533
O         0.322143    0.286429    0.465571     0.002533
O         0.286429    0.322143    0.465571     0.002533
BA        0.357857    0.286429    0.430714     0.002533
TI        0.393571    0.322143    0.467143     0.002533
O         0.393571    0.322143    0.500714     0.002533
O         0.393571    0.286429    0.465571     0.002533
O         0.357857    0.322143    0.465571     0.002533
BA        0.429286    0.286429    0.430714     0.002533
TI        0.465000    0.322143    0.467143     0.002533
O         0.465000    0.322143    0.500714     0.002533
O         0.465000    0.286429    0.465571     0.002533
O         0.429286    0.322143    0.465571     0.002533
BA        0.500714    0.286429    0.430714     0.002533
TI        0.536429    0.322143    0.467143     0.002533
O         0.536429    0.322143    0.500714     0.002533
O         0.536429    0.286429    0.465571     0.002533
O         0.500714    0.322143    0.465571     0.002533
BA        0.572143    0.286429    0.430714     0.002533
TI        0.607857    0.322143    0.467143     0.002533
O         0.607857    0.322143    0.500714     0.002533
O         0.607857    0.286429    0.465571     0.002533
O         0.572143    0.322143    0.465571     0.002533
BA        0.643571    0.286429    0.430714     0.002533
TI        0.679286    0.322143    0.467143     0.002533
O         0.679286    0.322143    0.500714     0.002533
O         0.679286    0.286429    0.465571     0.002533
O         0.643571    0.322143    0.465571     0.002533
BA        0.715000    0.286429    0.430714     0.002533
TI        0.750714    0.322143    0.467143     0.002533
O         0.750714    0.322143    0.500714     0.002533
O         0.750714    0.286429    0.465571     0.002533
O         0.715000    0.322143    0.465571     0.002533
BA        0.786429    0.286429    0.430714     0.002533
TI        0.822143    0.322143    0.467143     0.002533
O         0.822143    0.322143    0.500714     0.002533
O         0.822143    0.286429    0.465571     0.002533
O         0.786429    0.322143    0.465571     0.002533
O         0.857857    0.322143    0.465571     0.002533
BA        0.000714    0.357857    0.430714     0.002533
TI        0.036429    0.393571    0.467143     0.002533
O         0.036429    0.393571    0.500714     0.002533
O         0.036429    0.357857    0.465571     0.002533
O         0.000714    0.393571    0.465571     0.002533
BA        0.072143    0.357857    0.430714     0.002533
TI        0.107857    0.393571    0.467143     0.002533
O         0.107857    0.393571    0.500714     0.002533
O         0.107857    0.357857    0.465571     0.002533
O         0.072143    0.393571    0.465571     0.002533
BA        0.143571    0.357857    0.430714     0.002533
TI        0.179286    0.393571    0.467143     0.002533
O         0.179286    0.393571    0.500714     0.002533
O         0.179286    0.357857    0.465571     0.002533
O         0.143571    0.393571    0.465571     0.002533
BA        0.215000    0.357857    0.430714     0.002533
TI        0.250714    0.393571    0.467143     0.002533
O         0.250714    0.393571    0.500714     0.002533
O         0.250714    0.357857    0.465571     0.002533
O         0.215000    0.393571    0.465571     0.002533
BA        0.286429    0.357857    0.430714     0.002533
TI        0.322143    0.393571    0.467143     0.002533
O         0.322143    0.393571    0.500714     0.002533
O         0.322143    0.357857    0.465571     0.002533
O         0.286429    0.393571    0.465571     0.002533
BA        0.357857    0.357857    0.430714     0.002533
TI        0.393571    0.393571    0.467143     0.002533
O         0.393571    0.393571    0.500714     0.002533
O         0.393571    0.357857    0.465571     0.002533
O         0.357857    0.393571    0.465571     0.002533
BA        0.429286    0.357857    0.430714     0.002533
TI        0.465000    0.393571    0.467143     0.002533
O         0.465000    0.393571    0.500714     0.002533
O         0.465000    0.357857    0.465571     0.002533
O         0.429286    0.393571    0.465571     0.002533
BA        0.500714    0.357857    0.430714     0.002533
TI        0.536429    0.393571    0.467143     0.002533
O         0.536429    0.393571    0.500714     0.002533
O         0.536429    0.357857    0.465571     0.002533
O         0.500714    0.393571    0.465571     0.002533
BA        0.572143    0.357857    0.430714     0.002533
TI        0.607857    0.393571    0.467143     0.002533
O         0.607857    0.393571    0.500714     0.002533
O         0.607857    0.357857    0.465571     0.002533
O         0.572143    0.393571    0.465571     0.002533
BA        0.643571    0.357857    0.430714     0.002533
TI        0.679286    0.393571    0.467143     0.002533
O         0.679286    0.393571    0.500714     0.002533
O         0.679286    0.357857    0.465571     0.002533
O         0.643571    0.393571    0.465571     0.002533
BA        0.715000    0.357857    0.430714     0.002533
TI        0.750714    0.393571    0.467143     0.002533
O         0.750714    0.393571    0.500714     0.002533
O         0.750714    0.357857    0.465571     0.002533
O         0.715000    0.393571    0.465571     0.002533
BA        0.786429    0.357857    0.430714     0.002533
TI        0.822143    0.393571    0.467143     0.002533
O         0.822143    0.393571    0.500714     0.002533
O         0.822143    0.357857    0.465571     0.002533
O         0.786429    0.393571    0.465571     0.002533
BA        0.857857    0.357857    0.430714     0.002533
O         0.857857    0.393571    0.465571     0.002533
BA        0.000714    0.429286    0.430714     0.002533
TI        0.036429    0.465000    0.467143     0.002533
O         0.036429    0.465000    0.500714     0.002533
O         0.036429    0.429286    0.465571     0.002533
O         0.000714    0.465000    0.465571     0.002533
BA        0.072143    0.429286    0.430714     0.002533
TI        0.107857    0.465000    0.467143     0.002533
O         0.107857    0.465000    0.500714     0.002533
O         0.107857    0.429286    0.465571     0.002533
O         0.072143    0.465000    0.465571     0.002533
BA        0.143571    0.429286    0.430714     0.002533
TI        0.179286    0.465000    0.467143     0.002533
O         0.179286    0.465000    0.500714     0.002533
O         0.179286    0.429286    0.465571     0.002533
O         0.143571    0.465000    0.465571     0.002533
BA        0.215000    0.429286    0.430714     0.002533
TI        0.250714    0.465000    0.467143     0.002533
O         0.250714    0.465000    0.500714     0.002533
O         0.250714    0.429286    0.465571     0.002533
O         0.215000    0.465000    0.465571     0.002533
BA        0.286429    0.429286    0.430714     0.002533
TI        0.322143    0.465000    0.467143     0.002533
O         0.322143    0.465000    0.500714     0.002533
O         0.322143    0.429286    0.465571     0.002533
O         0.286429    0.465000    0.465571     0.002533
BA        0.357857    0.429286    0.430714     0.002533
TI        0.393571    0.465000    0.467143     0.002533
O         0.393571    0.465000    0.500714     0.002533
O         0.393571    0.429286    0.465571     0.002533
O         0.357857    0.465000    0.465571     0.002533
BA        0.429286    0.429286    0.430714     0.002533
TI        0.465000    0.465000    0.467143     0.002533
O         0.465000    0.465000    0.500714     0.002533
O         0.465000    0.429286    0.465571     0.002533
O         0.429286    0.465000    0.465571     0.002533
BA        0.500714    0.429286    0.430714     0.002533
TI        0.536429    0.465000    0.467143     0.002533
O         0.536429    0.465000    0.500714     0.002533
O         0.536429    0.429286    0.465571     0.002533
O         0.500714    0.465000    0.465571     0.002533
BA        0.572143    0.429286    0.430714     0.002533
TI        0.607857    0.465000    0.467143     0.002533
O         0.607857    0.465000    0.500714     0.002533
O         0.607857    0.429286    0.465571     0.002533
O         0.572143    0.465000    0.465571     0.002533
BA        0.643571    0.429286    0.430714     0.002533
TI        0.679286    0.465000    0.467143     0.002533
O         0.679286    0.465000    0.500714     0.002533
O         0.679286    0.429286    0.465571     0.002533
O         0.643571    0.465000    0.465571     0.002533
BA        0.715000    0.429286    0.430714     0.002533
TI        0.750714    0.465000    0.467143     0.002533
O         0.750714    0.465000    0.500714     0.002533
O         0.750714    0.429286    0.465571     0.002533
O         0.715000    0.465000    0.465571     0.002533
BA        0.786429    0.429286    0.430714     0.002533
TI        0.822143    0.465000    0.467143     0.002533
O         0.822143    0.465000    0.500714     0.002533
O         0.822143    0.429286    0.465571     0.002533
O         0.786429    0.465000    0.465571     0.002533
BA        0.857857    0.429286    0.430714     0.002533
O         0.857857    0.465000    0.465571     0.002533
BA        0.000714    0.500714    0.430714     0.002533
TI        0.036429    0.536429    0.467143     0.002533
O         0.036429    0.536429    0.500714     0.002533
O         0.036429    0.500714    0.465571     0.002533
O         0.000714    0.536429    0.465571     0.002533
BA        0.072143    0.500714    0.430714     0.002533
TI        0.107857    0.536429    0.467143     0.002533
O         0.107857    0.536429    0.500714     0.002533
O         0.107857    0.500714    0.465571     0.002533
O         0.072143    0.536429    0.465571     0.002533
BA        0.143571    0.500714    0.430714     0.002533
TI        0.179286    0.536429    0.467143     0.002533
O         0.179286    0.536429    0.500714     0.002533
O         0.179286    0.500714    0.465571     0.002533
O         0.143571    0.536429    0.465571     0.002533
BA        0.215000    0.500714    0.430714     0.002533
TI        0.250714    0.536429    0.467143     0.002533
O         0.250714    0.536429    0.500714     0.002533
O         0.250714    0.500714    0.465571     0.002533
O         0.215000    0.536429    0.465571     0.002533
BA        0.286429    0.500714    0.430714     0.002533
TI        0.322143    0.536429    0.467143     0.002533
O         0.322143    0.536429    0.500714     0.002533
O         0.322143    0.500714    0.465571     0.002533
O         0.286429    0.536429    0.465571     0.002533
BA        0.357857    0.500714    0.430714     0.002533
TI        0.393571    0.536429    0.467143     0.002533
O         0.393571    0.536429    0.500714     0.002533
O         0.393571    0.500714    0.465571     0.002533
O         0.357857    0.536429    0.465571     0.002533
BA        0.429286    0.500714    0.430714     0.002533
TI        0.465000    0.536429    0.467143     0.002533
O         0.465000    0.536429    0.500714     0.002533
O         0.465000    0.500714    0.465571     0.002533
O         0.429286    0.536429    0.465571     0.002533
BA        0.500714    0.500714    0.430714     0.002533
TI        0.536429    0.536429    0.467143     0.002533
O         0.536429    0.536429    0.500714     0.002533
O         0.536429    0.500714    0.465571     0.002533
O         0.500714    0.536429    0.465571     0.002533
BA        0.572143    0.500714    0.430714     0.002533
TI        0.607857    0.536429    0.467143     0.002533
O         0.607857    0.536429    0.500714     0.002533
O         0.607857    0.500714    0.465571     0.002533
O         0.572143    0.536429    0.465571     0.002533
BA        0.643571    0.500714    0.430714     0.002533
TI        0.679286    0.536429    0.467143     0.002533
O         0.679286    0.536429    0.500714     0.002533
O         0.679286    0.500714    0.465571     0.002533
O         0.643571    0.536429    0.465571     0.002533
BA        0.715000    0.500714    0.430714     0.002533
TI        0.750714    0.536429    0.467143     0.002533
O         0.750714    0.536429    0.500714     0.002533
O         0.750714    0.500714    0.465571     0.002533
O         0.715000    0.536429    0.465571     0.002533
BA        0.786429    0.500714    0.430714     0.002533
TI        0.822143    0.536429    0.467143     0.002533
O         0.822143    0.536429    0.500714     0.002533
O         0.822143    0.500714    0.465571     0.002533
O         0.786429    0.536429    0.465571     0.002533
BA        0.857857    0.500714    0.430714     0.002533
O         0.857857    0.536429    0.465571     0.002533
TI        0.036429    0.607857    0.467143     0.002533
O         0.036429    0.607857    0.500714     0.002533
O         0.036429    0.572143    0.465571     0.002533
BA        0.072143    0.572143    0.430714     0.002533
TI        0.107857    0.607857    0.467143     0.002533
O         0.107857    0.607857    0.500714     0.002533
O         0.107857    0.572143    0.465571     0.002533
O         0.072143    0.607857    0.465571     0.002533
BA        0.143571    0.572143    0.430714     0.002533
TI        0.179286    0.607857    0.467143     0.002533
O         0.179286    0.607857    0.500714     0.002533
O         0.179286    0.572143    0.465571     0.002533
O         0.143571    0.607857    0.465571     0.002533
BA        0.215000    0.572143    0.430714     0.002533
TI        0.250714    0.607857    0.467143     0.002533
O         0.250714    0.607857    0.500714     0.002533
O         0.250714    0.572143    0.465571     0.002533
O         0.215000    0.607857    0.465571     0.002533
BA        0.286429    0.572143    0.430714     0.002533
TI        0.322143    0.607857    0.467143     0.002533
O         0.322143    0.607857    0.500714     0.002533
O         0.322143    0.572143    0.465571     0.002533
O         0.286429    0.607857    0.465571     0.002533
BA        0.357857    0.572143    0.430714     0.002533
TI        0.393571    0.607857    0.467143     0.002533
O         0.393571    0.607857    0.500714     0.002533
O         0.393571    0.572143    0.465571     0.002533
O         0.357857    0.607857    0.465571     0.002533
BA        0.429286    0.572143    0.430714     0.002533
TI        0.465000    0.607857    0.467143     0.002533
O         0.465000    0.607857    0.500714     0.002533
O         0.465000    0.572143    0.465571     0.002533
O         0.429286    0.607857    0.465571     0.002533
BA        0.500714    0.572143    0.430714     0.002533
TI        0.536429    0.607857    0.467143     0.002533
O         0.536429    0.607857    0.500714     0.002533
O         0.536429    0.572143    0.465571     0.002533
O         0.500714    0.607857    0.465571     0.002533
BA        0.572143    0.572143    0.430714     0.002533
TI        0.607857    0.607857    0.467143     0.002533
O         0.607857    0.607857    0.500714     0.002533
O         0.607857    0.572143    0.465571     0.002533
O         0.572143    0.607857    0.465571     0.002533
BA        0.643571    0.572143    0.430714     0.002533
TI        0.679286    0.607857    0.467143     0.002533
O         0.679286    0.607857    0.500714     0.002533
O         0.679286    0.572143    0.465571     0.002533
O         0.643571    0.607857    0.465571     0.002533
BA        0.715000    0.572143    0.430714     0.002533
TI        0.750714    0.607857    0.467143     0.002533
O         0.750714    0.607857    0.500714     0.002533
O         0.750714    0.572143    0.465571     0.002533
O         0.715000    0.607857    0.465571     0.002533
BA        0.786429    0.572143    0.430714     0.002533
TI        0.822143    0.607857    0.467143     0.002533
O         0.822143    0.607857    0.500714     0.002533
O         0.822143    0.572143    0.465571     0.002533
O         0.786429    0.607857    0.465571     0.002533
BA        0.072143    0.643571    0.430714     0.002533
TI        0.107857    0.679286    0.467143     0.002533
O         0.107857    0.679286    0.500714     0.002533
O         0.107857    0.643571    0.465571     0.002533
O         0.072143    0.679286    0.465571     0.002533
BA        0.143571    0.643571    0.430714     0.002533
TI        0.179286    0.679286    0.467143     0.002533
O         0.179286    0.679286    0.500714     0.002533
O         0.179286    0.643571    0.465571     0.002533
O         0.143571    0.679286    0.465571     0.002533
BA        0.215000    0.643571    0.430714     0.002533
TI        0.250714    0.679286    0.467143     0.002533
O         0.250714    0.679286    0.500714     0.002533
O         0.250714    0.643571    0.465571     0.002533
O         0.215000    0.679286    0.465571     0.002533
BA        0.286429    0.643571    0.430714     0.002533
TI        0.322143    0.679286    0.467143     0.002533
O         0.322143    0.679286    0.500714     0.002533
O         0.322143    0.643571    0.465571     0.002533
O         0.286429    0.679286    0.465571     0.002533
BA        0.357857    0.643571    0.430714     0.002533
TI        0.393571    0.679286    0.467143     0.002533
O         0.393571    0.679286    0.500714     0.002533
O         0.393571    0.643571    0.465571     0.002533
O         0.357857    0.679286    0.465571     0.002533
BA        0.429286    0.643571    0.430714     0.002533
TI        0.465000    0.679286    0.467143     0.002533
O         0.465000    0.679286    0.500714     0.002533
O         0.465000    0.643571    0.465571     0.002533
O         0.429286    0.679286    0.465571     0.002533
BA        0.500714    0.643571    0.430714     0.002533
TI        0.536429    0.679286    0.467143     0.002533
O         0.536429    0.679286    0.500714     0.002533
O         0.536429    0.643571    0.465571     0.002533
O         0.500714    0.679286    0.465571     0.002533
BA        0.572143    0.643571    0.430714     0.002533
TI        0.607857    0.679286    0.467143     0.002533
O         0.607857    0.679286    0.500714     0.002533
O         0.607857    0.643571    0.465571     0.002533
O         0.572143    0.679286    0.465571     0.002533
BA        0.643571    0.643571    0.430714     0.002533
TI        0.679286    0.679286    0.467143     0.002533
O         0.679286    0.679286    0.500714     0.002533
O         0.679286    0.643571    0.465571     0.002533
O         0.643571    0.679286    0.465571     0.002533
BA        0.715000    0.643571    0.430714     0.002533
TI        0.750714    0.679286    0.467143     0.002533
O         0.750714    0.679286    0.500714     0.002533
O         0.750714    0.643571    0.465571     0.002533
O         0.715000    0.679286    0.465571     0.002533
BA        0.786429    0.643571    0.430714     0.002533
O         0.786429    0.679286    0.465571     0.002533
O         0.107857    0.715000    0.465571     0.002533
BA        0.143571    0.715000    0.430714     0.002533
TI        0.179286    0.750714    0.467143     0.002533
O         0.179286    0.750714    0.500714     0.002533
O         0.179286    0.715000    0.465571     0.002533
O         0.143571    0.750714    0.465571     0.002533
BA        0.215000    0.715000    0.430714     0.002533
TI        0.250714    0.750714    0.467143     0.002533
O         0.250714    0.750714    0.500714     0.002533
O         0.250714    0.715000    0.465571     0.002533
O         0.215000    0.750714    0.465571     0.002533
BA        0.286429    0.715000    0.430714     0.002533
TI        0.322143    0.750714    0.467143     0.002533
O         0.322143    0.750714    0.500714     0.002533
O         0.322143    0.715000    0.465571     0.002533
O         0.286429    0.750714    0.465571     0.002533
BA        0.357857    0.715000    0.430714     0.002533
TI        0.393571    0.750714    0.467143     0.002533
O         0.393571    0.750714    0.500714     0.002533
O         0.393571    0.715000    0.465571     0.002533
O         0.357857    0.750714    0.465571     0.002533
BA        0.429286    0.715000    0.430714     0.002533
TI        0.465000    0.750714    0.467143     0.002533
O         0.465000    0.750714    0.500714     0.002533
O         0.465000    0.715000    0.465571     0.002533
O         0.429286    0.750714    0.465571     0.002533
BA        0.500714    0.715000    0.430714     0.002533
TI        0.536429    0.750714    0.467143     0.002533
O         0.536429    0.750714    0.500714     0.002533
O         0.536429    0.715000    0.465571     0.002533
O         0.500714    0.750714    0.465571     0.002533
BA        0.572143    0.715000    0.430714     0.002533
TI        0.607857    0.750714    0.467143     0.002533
O         0.607857    0.750714    0.500714     0.002533
O         0.607857    0.715000    0.465571     0.002533
O         0.572143    0.750714    0.465571     0.002533
BA        0.643571    0.715000    0.430714     0.002533
TI        0.679286    0.750714    0.467143     0.002533
O         0.679286    0.750714    0.500714     0.002533
O         0.679286    0.715000    0.465571     0.002533
O         0.643571    0.750714    0.465571     0.002533
BA        0.715000    0.715000    0.430714     0.002533
O         0.750714    0.715000    0.465571     0.002533
O         0.715000    0.750714    0.465571     0.002533
O         0.179286    0.786429    0.465571     0.002533
BA        0.215000    0.786429    0.430714     0.002533
TI        0.250714    0.822143    0.467143     0.002533
O         0.250714    0.822143    0.500714     0.002533
O         0.250714    0.786429    0.465571     0.002533
BA        0.286429    0.786429    0.430714     0.002533
TI        0.322143    0.822143    0.467143     0.002533
O         0.322143    0.822143    0.500714     0.002533
O         0.322143    0.786429    0.465571     0.002533
O         0.286429    0.822143    0.465571     0.002533
BA        0.357857    0.786429    0.430714     0.002533
TI        0.393571    0.822143    0.467143     0.002533
O         0.393571    0.822143    0.500714     0.002533
O         0.393571    0.786429    0.465571     0.002533
O         0.357857    0.822143    0.465571     0.002533
BA        0.429286    0.786429    0.430714     0.002533
TI        0.465000    0.822143    0.467143     0.002533
O         0.465000    0.822143    0.500714     0.002533
O         0.465000    0.786429    0.465571     0.002533
O         0.429286    0.822143    0.465571     0.002533
BA        0.500714    0.786429    0.430714     0.002533
TI        0.536429    0.822143    0.467143     0.002533
O         0.536429    0.822143    0.500714     0.002533
O         0.536429    0.786429    0.465571     0.002533
O         0.500714    0.822143    0.465571     0.002533
BA        0.572143    0.786429    0.430714     0.002533
TI        0.607857    0.822143    0.467143     0.002533
O         0.607857    0.822143    0.500714     0.002533
O         0.607857    0.786429    0.465571     0.002533
O         0.572143    0.822143    0.465571     0.002533
BA        0.643571    0.786429    0.430714     0.002533
O         0.679286    0.786429    0.465571     0.002533
O         0.322143    0.857857    0.465571     0.002533
BA        0.357857    0.857857    0.430714     0.002533
O         0.393571    0.857857    0.465571     0.002533
BA        0.429286    0.857857    0.430714     0.002533
O         0.465000    0.857857    0.465571     0.002533
BA        0.500714    0.857857    0.430714     0.002533
O         0.536429    0.857857    0.465571     0.002533
TI        0.250714    0.036429    0.538571     0.002533
TI        0.322143    0.036429    0.538571     0.002533
O         0.322143    0.036429    0.572143     0.002533
O         0.286429    0.036429    0.537000     0.002533
BA        0.357857    0.000714    0.502143     0.002533
TI        0.393571    0.036429    0.538571     0.002533
O         0.393571    0.036429    0.572143     0.002533
O         0.393571    0.000714    0.537000     0.002533
O         0.357857    0.036429    0.537000     0.002533
BA        0.429286    0.000714    0.502143     0.002533
TI        0.465000    0.036429    0.538571     0.002533
O         0.465000    0.036429    0.572143     0.002533
O         0.465000    0.000714    0.537000     0.002533
O         0.429286    0.036429    0.537000     0.002533
BA        0.500714    0.000714    0.502143     0.002533
TI        0.536429    0.036429    0.538571     0.002533
O         0.536429    0.036429    0.572143     0.002533
O         0.500714    0.036429    0.537000     0.002533
TI        0.607857    0.036429    0.538571     0.002533
O         0.572143    0.036429    0.537000     0.002533
TI        0.179286    0.107857    0.538571     0.002533
O         0.179286    0.107857    0.572143     0.002533
O         0.143571    0.107857    0.537000     0.002533
BA        0.215000    0.072143    0.502143     0.002533
TI        0.250714    0.107857    0.538571     0.002533
O         0.250714    0.107857    0.572143     0.002533
O         0.250714    0.072143    0.537000     0.002533
O         0.215000    0.107857    0.537000     0.002533
BA        0.286429    0.072143    0.502143     0.002533
TI        0.322143    0.107857    0.538571     0.002533
O         0.322143    0.107857    0.572143     0.002533
O         0.322143    0.072143    0.537000     0.002533
O         0.286429    0.107857    0.537000     0.002533
BA        0.357857    0.072143    0.502143     0.002533
TI        0.393571    0.107857    0.538571     0.002533
O         0.393571    0.107857    0.572143     0.002533
O         0.393571    0.072143    0.537000     0.002533
O         0.357857    0.107857    0.537000     0.002533
BA        0.429286    0.072143    0.502143     0.002533
TI        0.465000    0.107857    0.538571     0.002533
O         0.465000    0.107857    0.572143     0.002533
O         0.465000    0.072143    0.537000     0.002533
O         0.429286    0.107857    0.537000     0.002533
BA        0.500714    0.072143    0.502143     0.002533
TI        0.536429    0.107857    0.538571     0.002533
O         0.536429    0.107857    0.572143     0.002533
O         0.536429    0.072143    0.537000     0.002533
O         0.500714    0.107857    0.537000     0.002533
BA        0.572143    0.072143    0.502143     0.002533
TI        0.607857    0.107857    0.538571     0.002533
O         0.607857    0.107857    0.572143     0.002533
O         0.607857    0.072143    0.537000     0.002533
O         0.572143    0.107857    0.537000     0.002533
BA        0.643571    0.072143    0.502143     0.002533
TI        0.679286    0.107857    0.538571     0.002533
O         0.679286    0.107857    0.572143     0.002533
O         0.643571    0.107857    0.537000     0.002533
O         0.715000    0.107857    0.537000     0.002533
TI        0.107857    0.179286    0.538571     0.002533
O         0.107857    0.179286    0.572143     0.002533
O         0.107857    0.143571    0.537000     0.002533
BA        0.143571    0.143571    0.502143     0.002533
TI        0.179286    0.179286    0.538571     0.002533
O         0.179286    0.179286    0.572143     0.002533
O         0.179286    0.143571    0.537000     0.002533
O         0.143571    0.179286    0.537000     0.002533
BA        0.215000    0.143571    0.502143     0.002533
TI        0.250714    0.179286    0.538571     0.002533
O         0.250714    0.179286    0.572143     0.002533
O         0.250714    0.143571    0.537000     0.002533
O         0.215000    0.179286    0.537000     0.002533
BA        0.286429    0.143571    0.502143     0.002533
TI        0.322143    0.179286    0.538571     0.002533
O         0.322143    0.179286    0.572143     0.002533
O         0.322143    0.143571    0.537000     0.002533
O         0.286429    0.179286    0.537000     0.002533
BA        0.357857    0.143571    0.502143     0.002533
TI        0.393571    0.179286    0.538571     0.002533
O         0.393571    0.179286    0.572143     0.002533
O         0.393571    0.143571    0.537000     0.002533
O         0.357857    0.179286    0.537000     0.002533
BA        0.429286    0.143571    0.502143     0.002533
TI        0.465000    0.179286    0.538571     0.002533
O         0.465000    0.179286    0.572143     0.002533
O         0.465000    0.143571    0.537000     0.002533
O         0.429286    0.179286    0.537000     0.002533
BA        0.500714    0.143571    0.502143     0.002533
TI        0.536429    0.179286    0.538571     0.002533
O         0.536429    0.179286    0.572143     0.002533
O         0.536429    0.143571    0.537000     0.002533
O         0.500714    0.179286    0.537000     0.002533
BA        0.572143    0.143571    0.502143     0.002533
TI        0.607857    0.179286    0.538571     0.002533
O         0.607857    0.179286    0.572143     0.002533
O         0.607857    0.143571    0.537000     0.002533
O         0.572143    0.179286    0.537000     0.002533
BA        0.643571    0.143571    0.502143     0.002533
TI        0.679286    0.179286    0.538571     0.002533
O         0.679286    0.179286    0.572143     0.002533
O         0.679286    0.143571    0.537000     0.002533
O         0.643571    0.179286    0.537000     0.002533
BA        0.715000    0.143571    0.502143     0.002533
TI        0.750714    0.179286    0.538571     0.002533
O         0.750714    0.179286    0.572143     0.002533
O         0.750714    0.143571    0.537000     0.002533
O         0.715000    0.179286    0.537000     0.002533
TI        0.036429    0.250714    0.538571     0.002533
BA        0.072143    0.215000    0.502143     0.002533
TI        0.107857    0.250714    0.538571     0.002533
O         0.107857    0.250714    0.572143     0.002533
O         0.107857    0.215000    0.537000     0.002533
O         0.072143    0.250714    0.537000     0.002533
BA        0.143571    0.215000    0.502143     0.002533
TI        0.179286    0.250714    0.538571     0.002533
O         0.179286    0.250714    0.572143     0.002533
O         0.179286    0.215000    0.537000     0.002533
O         0.143571    0.250714    0.537000     0.002533
BA        0.215000    0.215000    0.502143     0.002533
TI        0.250714    0.250714    0.538571     0.002533
O         0.250714    0.250714    0.572143     0.002533
O         0.250714    0.215000    0.537000     0.002533
O         0.215000    0.250714    0.537000     0.002533
BA        0.286429    0.215000    0.502143     0.002533
TI        0.322143    0.250714    0.538571     0.002533
O         0.322143    0.250714    0.572143     0.002533
O         0.322143    0.215000    0.537000     0.002533
O         0.286429    0.250714    0.537000     0.002533
BA        0.357857    0.215000    0.502143     0.002533
TI        0.393571    0.250714    0.538571     0.002533
O         0.393571    0.250714    0.572143     0.002533
O         0.393571    0.215000    0.537000     0.002533
O         0.357857    0.250714    0.537000     0.002533
BA        0.429286    0.215000    0.502143     0.002533
TI        0.465000    0.250714    0.538571     0.002533
O         0.465000    0.250714    0.572143     0.002533
O         0.465000    0.215000    0.537000     0.002533
O         0.429286    0.250714    0.537000     0.002533
BA        0.500714    0.215000    0.502143     0.002533
TI        0.536429    0.250714    0.538571     0.002533
O         0.536429    0.250714    0.572143     0.002533
O         0.536429    0.215000    0.537000     0.002533
O         0.500714    0.250714    0.537000     0.002533
BA        0.572143    0.215000    0.502143     0.002533
TI        0.607857    0.250714    0.538571     0.002533
O         0.607857    0.250714    0.572143     0.002533
O         0.607857    0.215000    0.537000     0.002533
O         0.572143    0.250714    0.537000     0.002533
BA        0.643571    0.215000    0.502143     0.002533
TI        0.679286    0.250714    0.538571     0.002533
O         0.679286    0.250714    0.572143     0.002533
O         0.679286    0.215000    0.537000     0.002533
O         0.643571    0.250714    0.537000     0.002533
BA        0.715000    0.215000    0.502143     0.002533
TI        0.750714    0.250714    0.538571     0.002533
O         0.750714    0.250714    0.572143     0.002533
O         0.750714    0.215000    0.537000     0.002533
O         0.715000    0.250714    0.537000     0.002533
BA        0.786429    0.215000    0.502143     0.002533
TI        0.822143    0.250714    0.538571     0.002533
O         0.786429    0.250714    0.537000     0.002533
TI        0.036429    0.322143    0.538571     0.002533
O         0.036429    0.322143    0.572143     0.002533
O         0.036429    0.286429    0.537000     0.002533
BA        0.072143    0.286429    0.502143     0.002533
TI        0.107857    0.322143    0.538571     0.002533
O         0.107857    0.322143    0.572143     0.002533
O         0.107857    0.286429    0.537000     0.002533
O         0.072143    0.322143    0.537000     0.002533
BA        0.143571    0.286429    0.502143     0.002533
TI        0.179286    0.322143    0.538571     0.002533
O         0.179286    0.322143    0.572143     0.002533
O         0.179286    0.286429    0.537000     0.002533
O         0.143571    0.322143    0.537000     0.002533
BA        0.215000    0.286429    0.502143     0.002533
TI        0.250714    0.322143    0.538571     0.002533
O         0.250714    0.322143    0.572143     0.002533
O         0.250714    0.286429    0.537000     0.002533
O         0.215000    0.322143    0.537000     0.002533
BA        0.286429    0.286429    0.502143     0.002533
TI        0.322143    0.322143    0.538571     0.002533
O         0.322143    0.322143    0.572143     0.002533
O         0.322143    0.286429    0.537000     0.002533
O         0.286429    0.322143    0.537000     0.002533
BA        0.357857    0.286429    0.502143     0.002533
TI        0.393571    0.322143    0.538571     0.002533
O         0.393571    0.322143    0.572143     0.002533
O         0.393571    0.286429    0.537000     0.002533
O         0.357857    0.322143    0.537000     0.002533
BA        0.429286    0.286429    0.502143     0.002533
TI        0.465000    0.322143    0.538571     0.002533
O         0.465000    0.322143    0.572143     0.002533
O         0.465000    0.286429    0.537000     0.002533
O         0.429286    0.322143    0.537000     0.002533
BA        0.500714    0.286429    0.502143     0.002533
TI        0.536429    0.322143    0.538571     0.002533
O         0.536429    0.322143    0.572143     0.002533
O         0.536429    0.286429    0.537000     0.002533
O         0.500714    0.322143    0.537000     0.002533
BA        0.572143    0.286429    0.502143     0.002533
TI        0.607857    0.322143    0.538571     0.002533
O         0.607857    0.322143    0.572143     0.002533
O         0.607857    0.286429    0.537000     0.002533
O         0.572143    0.322143    0.537000     0.002533
BA        0.643571    0.286429    0.502143     0.002533
TI        0.679286    0.322143    0.538571     0.002533
O         0.679286    0.322143    0.572143     0.002533
O         0.679286    0.286429    0.537000     0.002533
O         0.643571    0.322143    0.537000     0.002533
BA        0.715000    0.286429    0.502143     0.002533
TI        0.750714    0.322143    0.538571     0.002533
O         0.750714    0.322143    0.572143     0.002533
O         0.750714    0.286429    0.537000     0.002533
O         0.715000    0.322143    0.537000     0.002533
BA        0.786429    0.286429    0.502143     0.002533
TI        0.822143    0.322143    0.538571     0.002533
O         0.822143    0.322143    0.572143     0.002533
O         0.822143    0.286429    0.537000     0.002533
O         0.786429    0.322143    0.537000     0.002533
BA        0.000714    0.357857    0.502143     0.002533
TI        0.036429    0.393571    0.538571     0.002533
O         0.036429    0.393571    0.572143     0.002533
O         0.036429    0.357857    0.537000     0.002533
O         0.000714    0.393571    0.537000     0.002533
BA        0.072143    0.357857    0.502143     0.002533
TI        0.107857    0.393571    0.538571     0.002533
O         0.107857    0.393571    0.572143     0.002533
O         0.107857    0.357857    0.537000     0.002533
O         0.072143    0.393571    0.537000     0.002533
BA        0.143571    0.357857    0.502143     0.002533
TI        0.179286    0.393571    0.538571     0.002533
O         0.179286    0.393571    0.572143     0.002533
O         0.179286    0.357857    0.537000     0.002533
O         0.143571    0.393571    0.537000     0.002533
BA        0.215000    0.357857    0.502143     0.002533
TI        0.250714    0.393571    0.538571     0.002533
O         0.250714    0.393571    0.572143     0.002533
O         0.250714    0.357857    0.537000     0.002533
O         0.215000    0.393571    0.537000     0.002533
BA        0.286429    0.357857    0.502143     0.002533
TI        0.322143    0.393571    0.538571     0.002533
O         0.322143    0.393571    0.572143     0.002533
O         0.322143    0.357857    0.537000     0.002533
O         0.286429    0.393571    0.537000     0.002533
BA        0.357857    0.357857    0.502143     0.002533
TI        0.393571    0.393571    0.538571     0.002533
O         0.393571    0.393571    0.572143     0.002533
O         0.393571    0.357857    0.537000     0.002533
O         0.357857    0.393571    0.537000     0.002533
BA        0.429286    0.357857    0.502143     0.002533
TI        0.465000    0.393571    0.538571     0.002533
O         0.465000    0.393571    0.572143     0.002533
O         0.465000    0.357857    0.537000     0.002533
O         0.429286    0.393571    0.537000     0.002533
BA        0.500714    0.357857    0.502143     0.002533
TI        0.536429    0.393571    0.538571     0.002533
O         0.536429    0.393571    0.572143     0.002533
O         0.536429    0.357857    0.537000     0.002533
O         0.500714    0.393571    0.537000     0.002533
BA        0.572143    0.357857    0.502143     0.002533
TI        0.607857    0.393571    0.538571     0.002533
O         0.607857    0.393571    0.572143     0.002533
O         0.607857    0.357857    0.537000     0.002533
O         0.572143    0.393571    0.537000     0.002533
BA        0.643571    0.357857    0.502143     0.002533
TI        0.679286    0.393571    0.538571     0.002533
O         0.679286    0.393571    0.572143     0.002533
O         0.679286    0.357857    0.537000     0.002533
O         0.643571    0.393571    0.537000     0.002533
BA        0.715000    0.357857    0.502143     0.002533
TI        0.750714    0.393571    0.538571     0.002533
O         0.750714    0.393571    0.572143     0.002533
O         0.750714    0.357857    0.537000     0.002533
O         0.715000    0.393571    0.537000     0.002533
BA        0.786429    0.357857    0.502143     0.002533
TI        0.822143    0.393571    0.538571     0.002533
O         0.822143    0.393571    0.572143     0.002533
O         0.822143    0.357857    0.537000     0.002533
O         0.786429    0.393571    0.537000     0.002533
BA        0.857857    0.357857    0.502143     0.002533
O         0.857857    0.393571    0.537000     0.002533
BA        0.000714    0.429286    0.502143     0.002533
TI        0.036429    0.465000    0.538571     0.002533
O         0.036429    0.465000    0.572143     0.002533
O         0.036429    0.429286    0.537000     0.002533
O         0.000714    0.465000    0.537000     0.002533
BA        0.072143    0.429286    0.502143     0.002533
TI        0.107857    0.465000    0.538571     0.002533
O         0.107857    0.465000    0.572143     0.002533
O         0.107857    0.429286    0.537000     0.002533
O         0.072143    0.465000    0.537000     0.002533
BA        0.143571    0.429286    0.502143     0.002533
TI        0.179286    0.465000    0.538571     0.002533
O         0.179286    0.465000    0.572143     0.002533
O         0.179286    0.429286    0.537000     0.002533
O         0.143571    0.465000    0.537000     0.002533
BA        0.215000    0.429286    0.502143     0.002533
TI        0.250714    0.465000    0.538571     0.002533
O         0.250714    0.465000    0.572143     0.002533
O         0.250714    0.429286    0.537000     0.002533
O         0.215000    0.465000    0.537000     0.002533
BA        0.286429    0.429286    0.502143     0.002533
TI        0.322143    0.465000    0.538571     0.002533
O         0.322143    0.465000    0.572143     0.002533
O         0.322143    0.429286    0.537000     0.002533
O         0.286429    0.465000    0.537000     0.002533
BA        0.357857    0.429286    0.502143     0.002533
TI        0.393571    0.465000    0.538571     0.002533
O         0.393571    0.465000    0.572143     0.002533
O         0.393571    0.429286    0.537000     0.002533
O         0.357857    0.465000    0.537000     0.002533
BA        0.429286    0.429286    0.502143     0.002533
TI        0.465000    0.465000    0.538571     0.002533
O         0.465000    0.465000    0.572143     0.002533
O         0.465000    0.429286    0.537000     0.002533
O         0.429286    0.465000    0.537000     0.002533
BA        0.500714    0.429286    0.502143     0.002533
TI        0.536429    0.465000    0.538571     0.002533
O         0.536429    0.465000    0.572143     0.002533
O         0.536429    0.429286    0.537000     0.002533
O         0.500714    0.465000    0.537000     0.002533
BA        0.572143    0.429286    0.502143     0.002533
TI        0.607857    0.465000    0.538571     0.002533
O         0.607857    0.465000    0.572143     0.002533
O         0.607857    0.429286    0.537000     0.002533
O         0.572143    0.465000    0.537000     0.002533
BA        0.643571    0.429286    0.502143     0.002533
TI        0.679286    0.465000    0.538571     0.002533
O         0.679286    0.465000    0.572143     0.002533
O         0.679286    0.429286    0.537000     0.002533
O         0.643571    0.465000    0.537000     0.002533
BA        0.715000    0.429286    0.502143     0.002533
TI        0.750714    0.465000    0.538571     0.002533
O         0.750714    0.465000    0.572143     0.002533
O         0.750714    0.429286    0.537000     0.002533
O         0.715000    0.465000    0.537000     0.002533
BA        0.786429    0.429286    0.502143     0.002533
TI        0.822143    0.465000    0.538571     0.002533
O         0.822143    0.465000    0.572143     0.002533
O         0.822143    0.429286    0.537000     0.002533
O         0.786429    0.465000    0.537000     0.002533
BA        0.857857    0.429286    0.502143     0.002533
O         0.857857    0.465000    0.537000     0.002533
BA        0.000714    0.500714    0.502143     0.002533
TI        0.036429    0.536429    0.538571     0.002533
O         0.036429    0.536429    0.572143     0.002533
O         0.036429    0.500714    0.537000     0.002533
BA        0.072143    0.500714    0.502143     0.002533
TI        0.107857    0.536429    0.538571     0.002533
O         0.107857    0.536429    0.572143     0.002533
O         0.107857    0.500714    0.537000     0.002533
O         0.072143    0.536429    0.537000     0.002533
BA        0.143571    0.500714    0.502143     0.002533
TI        0.179286    0.536429    0.538571     0.002533
O         0.179286    0.536429    0.572143     0.002533
O         0.179286    0.500714    0.537000     0.002533
O         0.143571    0.536429    0.537000     0.002533
BA        0.215000    0.500714    0.502143     0.002533
TI        0.250714    0.536429    0.538571     0.002533
O         0.250714    0.536429    0.572143     0.002533
O         0.250714    0.500714    0.537000     0.002533
O         0.215000    0.536429    0.537000     0.002533
BA        0.286429    0.500714    0.502143     0.002533
TI        0.322143    0.536429    0.538571     0.002533
O         0.322143    0.536429    0.572143     0.002533
O         0.322143    0.500714    0.537000     0.002533
O         0.286429    0.536429    0.537000     0.002533
BA        0.357857    0.500714    0.502143     0.002533
TI        0.393571    0.536429    0.538571     0.002533
O         0.393571    0.536429    0.572143     0.002533
O         0.393571    0.500714    0.537000     0.002533
O         0.357857    0.536429    0.537000     0.002533
BA        0.429286    0.500714    0.502143     0.002533
TI        0.465000    0.536429    0.538571     0.002533
O         0.465000    0.536429    0.572143     0.002533
O         0.465000    0.500714    0.537000     0.002533
O         0.429286    0.536429    0.537000     0.002533
BA        0.500714    0.500714    0.502143     0.002533
TI        0.536429    0.536429    0.538571     0.002533
O         0.536429    0.536429    0.572143     0.002533
O         0.536429    0.500714    0.537000     0.002533
O         0.500714    0.536429    0.537000     0.002533
BA        0.572143    0.500714    0.502143     0.002533
TI        0.607857    0.536429    0.538571     0.002533
O         0.607857    0.536429    0.572143     0.002533
O         0.607857    0.500714    0.537000     0.002533
O         0.572143    0.536429    0.537000     0.002533
BA        0.643571    0.500714    0.502143     0.002533
TI        0.679286    0.536429    0.538571     0.002533
O         0.679286    0.536429    0.572143     0.002533
O         0.679286    0.500714    0.537000     0.002533
O         0.643571    0.536429    0.537000     0.002533
BA        0.715000    0.500714    0.502143     0.002533
TI        0.750714    0.536429    0.538571     0.002533
O         0.750714    0.536429    0.572143     0.002533
O         0.750714    0.500714    0.537000     0.002533
O         0.715000    0.536429    0.537000     0.002533
BA        0.786429    0.500714    0.502143     0.002533
TI        0.822143    0.536429    0.538571     0.002533
O         0.822143    0.536429    0.572143     0.002533
O         0.822143    0.500714    0.537000     0.002533
O         0.786429    0.536429    0.537000     0.002533
BA        0.857857    0.500714    0.502143     0.002533
TI        0.036429    0.607857    0.538571     0.002533
O         0.036429    0.572143    0.537000     0.002533
BA        0.072143    0.572143    0.502143     0.002533
TI        0.107857    0.607857    0.538571     0.002533
O         0.107857    0.607857    0.572143     0.002533
O         0.107857    0.572143    0.537000     0.002533
O         0.072143    0.607857    0.537000     0.002533
BA        0.143571    0.572143    0.502143     0.002533
TI        0.179286    0.607857    0.538571     0.002533
O         0.179286    0.607857    0.572143     0.002533
O         0.179286    0.572143    0.537000     0.002533
O         0.143571    0.607857    0.537000     0.002533
BA        0.215000    0.572143    0.502143     0.002533
TI        0.250714    0.607857    0.538571     0.002533
O         0.250714    0.607857    0.572143     0.002533
O         0.250714    0.572143    0.537000     0.002533
O         0.215000    0.607857    0.537000     0.002533
BA        0.286429    0.572143    0.502143     0.002533
TI        0.322143    0.607857    0.538571     0.002533
O         0.322143    0.607857    0.572143     0.002533
O         0.322143    0.572143    0.537000     0.002533
O         0.286429    0.607857    0.537000     0.002533
BA        0.357857    0.572143    0.502143     0.002533
TI        0.393571    0.607857    0.538571     0.002533
O         0.393571    0.607857    0.572143     0.002533
O         0.393571    0.572143    0.537000     0.002533
O         0.357857    0.607857    0.537000     0.002533
BA        0.429286    0.572143    0.502143     0.002533
TI        0.465000    0.607857    0.538571     0.002533
O         0.465000    0.607857    0.572143     0.002533
O         0.465000    0.572143    0.537000     0.002533
O         0.429286    0.607857    0.537000     0.002533
BA        0.500714    0.572143    0.502143     0.002533
TI        0.536429    0.607857    0.538571     0.002533
O         0.536429    0.607857    0.572143     0.002533
O         0.536429    0.572143    0.537000     0.002533
O         0.500714    0.607857    0.537000     0.002533
BA        0.572143    0.572143    0.502143     0.002533
TI        0.607857    0.607857    0.538571     0.002533
O         0.607857    0.607857    0.572143     0.002533
O         0.607857    0.572143    0.537000     0.002533
O         0.572143    0.607857    0.537000     0.002533
BA        0.643571    0.572143    0.502143     0.002533
TI        0.679286    0.607857    0.538571     0.002533
O         0.679286    0.607857    0.572143     0.002533
O         0.679286    0.572143    0.537000     0.002533
O         0.643571    0.607857    0.537000     0.002533
BA        0.715000    0.572143    0.502143     0.002533
TI        0.750714    0.607857    0.538571     0.002533
O         0.750714    0.607857    0.572143     0.002533
O         0.750714    0.572143    0.537000     0.002533
O         0.715000    0.607857    0.537000     0.002533
BA        0.786429    0.572143    0.502143     0.002533
TI        0.822143    0.607857    0.538571     0.002533
O         0.822143    0.572143    0.537000     0.002533
O         0.786429    0.607857    0.537000     0.002533
BA        0.072143    0.643571    0.502143     0.002533
TI        0.107857    0.679286    0.538571     0.002533
O         0.107857    0.679286    0.572143     0.002533
O         0.107857    0.643571    0.537000     0.002533
BA        0.143571    0.643571    0.502143     0.002533
TI        0.179286    0.679286    0.538571     0.002533
O         0.179286    0.679286    0.572143     0.002533
O         0.179286    0.643571    0.537000     0.002533
O         0.143571    0.679286    0.537000     0.002533
BA        0.215000    0.643571    0.502143     0.002533
TI        0.250714    0.679286    0.538571     0.002533
O         0.250714    0.679286    0.572143     0.002533
O         0.250714    0.643571    0.537000     0.002533
O         0.215000    0.679286    0.537000     0.002533
BA        0.286429    0.643571    0.502143     0.002533
TI        0.322143    0.679286    0.538571     0.002533
O         0.322143    0.679286    0.572143     0.002533
O         0.322143    0.643571    0.537000     0.002533
O         0.286429    0.679286    0.537000     0.002533
BA        0.357857    0.643571    0.502143     0.002533
TI        0.393571    0.679286    0.538571     0.002533
O         0.393571    0.679286    0.572143     0.002533
O         0.393571    0.643571    0.537000     0.002533
O         0.357857    0.679286    0.537000     0.002533
BA        0.429286    0.643571    0.502143     0.002533
TI        0.465000    0.679286    0.538571     0.002533
O         0.465000    0.679286    0.572143     0.002533
O         0.465000    0.643571    0.537000     0.002533
O         0.429286    0.679286    0.537000     0.002533
BA        0.500714    0.643571    0.502143     0.002533
TI        0.536429    0.679286    0.538571     0.002533
O         0.536429    0.679286    0.572143     0.002533
O         0.536429    0.643571    0.537000     0.002533
O         0.500714    0.679286    0.537000     0.002533
BA        0.572143    0.643571    0.502143     0.002533
TI        0.607857    0.679286    0.538571     0.002533
O         0.607857    0.679286    0.572143     0.002533
O         0.607857    0.643571    0.537000     0.002533
O         0.572143    0.679286    0.537000     0.002533
BA        0.643571    0.643571    0.502143     0.002533
TI        0.679286    0.679286    0.538571     0.002533
O         0.679286    0.679286    0.572143     0.002533
O         0.679286    0.643571    0.537000     0.002533
O         0.643571    0.679286    0.537000     0.002533
BA        0.715000    0.643571    0.502143     0.002533
TI        0.750714    0.679286    0.538571     0.002533
O         0.750714    0.679286    0.572143     0.002533
O         0.750714    0.643571    0.537000     0.002533
O         0.715000    0.679286    0.537000     0.002533
BA        0.786429    0.643571    0.502143     0.002533
O         0.107857    0.715000    0.537000     0.002533
BA        0.143571    0.715000    0.502143     0.002533
TI        0.179286    0.750714    0.538571     0.002533
O         0.179286    0.750714    0.572143     0.002533
O         0.179286    0.715000    0.537000     0.002533
O         0.143571    0.750714    0.537000     0.002533
BA        0.215000    0.715000    0.502143     0.002533
TI        0.250714    0.750714    0.538571     0.002533
O         0.250714    0.750714    0.572143     0.002533
O         0.250714    0.715000    0.537000     0.002533
O         0.215000    0.750714    0.537000     0.002533
BA        0.286429    0.715000    0.502143     0.002533
TI        0.322143    0.750714    0.538571     0.002533
O         0.322143    0.750714    0.572143     0.002533
O         0.322143    0.715000    0.537000     0.002533
O         0.286429    0.750714    0.537000     0.002533
BA        0.357857    0.715000    0.502143     0.002533
TI        0.393571    0.750714    0.538571     0.002533
O         0.393571    0.750714    0.572143     0.002533
O         0.393571    0.715000    0.537000     0.002533
O         0.357857    0.750714    0.537000     0.002533
BA        0.429286    0.715000    0.502143     0.002533
TI        0.465000    0.750714    0.538571     0.002533
O         0.465000    0.750714    0.572143     0.002533
O         0.465000    0.715000    0.537000     0.002533
O         0.429286    0.750714    0.537000     0.002533
BA        0.500714    0.715000    0.502143     0.002533
TI        0.536429    0.750714    0.538571     0.002533
O         0.536429    0.750714    0.572143     0.002533
O         0.536429    0.715000    0.537000     0.002533
O         0.500714    0.750714    0.537000     0.002533
BA        0.572143    0.715000    0.502143     0.002533
TI        0.607857    0.750714    0.538571     0.002533
O         0.607857    0.750714    0.572143     0.002533
O         0.607857    0.715000    0.537000     0.002533
O         0.572143    0.750714    0.537000     0.002533
BA        0.643571    0.715000    0.502143     0.002533
TI        0.679286    0.750714    0.538571     0.002533
O         0.679286    0.750714    0.572143     0.002533
O         0.679286    0.715000    0.537000     0.002533
O         0.643571    0.750714    0.537000     0.002533
BA        0.715000    0.715000    0.502143     0.002533
O         0.750714    0.715000    0.537000     0.002533
O         0.715000    0.750714    0.537000     0.002533
BA        0.215000    0.786429    0.502143     0.002533
TI        0.250714    0.822143    0.538571     0.002533
O         0.250714    0.786429    0.537000     0.002533
BA        0.286429    0.786429    0.502143     0.002533
TI        0.322143    0.822143    0.538571     0.002533
O         0.322143    0.822143    0.572143     0.002533
O         0.322143    0.786429    0.537000     0.002533
O         0.286429    0.822143    0.537000     0.002533
BA        0.357857    0.786429    0.502143     0.002533
TI        0.393571    0.822143    0.538571     0.002533
O         0.393571    0.822143    0.572143     0.002533
O         0.393571    0.786429    0.537000     0.002533
O         0.357857    0.822143    0.537000     0.002533
BA        0.429286    0.786429    0.502143     0.002533
TI        0.465000    0.822143    0.538571     0.002533
O         0.465000    0.822143    0.572143     0.002533
O         0.465000    0.786429    0.537000     0.002533
O         0.429286    0.822143    0.537000     0.002533
BA        0.500714    0.786429    0.502143     0.002533
TI        0.536429    0.822143    0.538571     0.002533
O         0.536429    0.822143    0.572143     0.002533
O         0.536429    0.786429    0.537000     0.002533
O         0.500714    0.822143    0.537000     0.002533
BA        0.572143    0.786429    0.502143     0.002533
TI        0.607857    0.822143    0.538571     0.002533
O         0.607857    0.786429    0.537000     0.002533
O         0.572143    0.822143    0.537000     0.002533
BA        0.643571    0.786429    0.502143     0.002533
BA        0.357857    0.857857    0.502143     0.002533
O         0.393571    0.857857    0.537000     0.002533
BA        0.429286    0.857857    0.502143     0.002533
O         0.465000    0.857857    0.537000     0.002533
BA        0.500714    0.857857    0.502143     0.002533
TI        0.393571    0.036429    0.610000     0.002533
O         0.357857    0.036429    0.608428     0.002533
TI        0.465000    0.036429    0.610000     0.002533
O         0.429286    0.036429    0.608428     0.002533
O         0.500714    0.036429    0.608428     0.002533
BA        0.215000    0.072143    0.573571     0.002533
TI        0.250714    0.107857    0.610000     0.002533
O         0.250714    0.107857    0.643571     0.002533
O         0.250714    0.072143    0.608428     0.002533
O         0.215000    0.107857    0.608428     0.002533
BA        0.286429    0.072143    0.573571     0.002533
TI        0.322143    0.107857    0.610000     0.002533
O         0.322143    0.107857    0.643571     0.002533
O         0.322143    0.072143    0.608428     0.002533
O         0.286429    0.107857    0.608428     0.002533
BA        0.357857    0.072143    0.573571     0.002533
TI        0.393571    0.107857    0.610000     0.002533
O         0.393571    0.107857    0.643571     0.002533
O         0.393571    0.072143    0.608428     0.002533
O         0.357857    0.107857    0.608428     0.002533
BA        0.429286    0.072143    0.573571     0.002533
TI        0.465000    0.107857    0.610000     0.002533
O         0.465000    0.107857    0.643571     0.002533
O         0.465000    0.072143    0.608428     0.002533
O         0.429286    0.107857    0.608428     0.002533
BA        0.500714    0.072143    0.573571     0.002533
TI        0.536429    0.107857    0.610000     0.002533
O         0.536429    0.107857    0.643571     0.002533
O         0.536429    0.072143    0.608428     0.002533
O         0.500714    0.107857    0.608428     0.002533
BA        0.572143    0.072143    0.573571     0.002533
TI        0.607857    0.107857    0.610000     0.002533
O         0.607857    0.107857    0.643571     0.002533
O         0.607857    0.072143    0.608428     0.002533
O         0.572143    0.107857    0.608428     0.002533
BA        0.643571    0.072143    0.573571     0.002533
O         0.643571    0.107857    0.608428     0.002533
BA        0.143571    0.143571    0.573571     0.002533
TI        0.179286    0.179286    0.610000     0.002533
O         0.179286    0.179286    0.643571     0.002533
O         0.179286    0.143571    0.608428     0.002533
O         0.143571    0.179286    0.608428     0.002533
BA        0.215000    0.143571    0.573571     0.002533
TI        0.250714    0.179286    0.610000     0.002533
O         0.250714    0.179286    0.643571     0.002533
O         0.250714    0.143571    0.608428     0.002533
O         0.215000    0.179286    0.608428     0.002533
BA        0.286429    0.143571    0.573571     0.002533
TI        0.322143    0.179286    0.610000     0.002533
O         0.322143    0.179286    0.643571     0.002533
O         0.322143    0.143571    0.608428     0.002533
O         0.286429    0.179286    0.608428     0.002533
BA        0.357857    0.143571    0.573571     0.002533
TI        0.393571    0.179286    0.610000     0.002533
O         0.393571    0.179286    0.643571     0.002533
O         0.393571    0.143571    0.608428     0.002533
O         0.357857    0.179286    0.608428     0.002533
BA        0.429286    0.143571    0.573571     0.002533
TI        0.465000    0.179286    0.610000     0.002533
O         0.465000    0.179286    0.643571     0.002533
O         0.465000    0.143571    0.608428     0.002533
O         0.429286    0.179286    0.608428     0.002533
BA        0.500714    0.143571    0.573571     0.002533
TI        0.536429    0.179286    0.610000     0.002533
O         0.536429    0.179286    0.643571     0.002533
O         0.536429    0.143571    0.608428     0.002533
O         0.500714    0.179286    0.608428     0.002533
BA        0.572143    0.143571    0.573571     0.002533
TI        0.607857    0.179286    0.610000     0.002533
O         0.607857    0.179286    0.643571     0.002533
O         0.607857    0.143571    0.608428     0.002533
O         0.572143    0.179286    0.608428     0.002533
BA        0.643571    0.143571    0.573571     0.002533
TI        0.679286    0.179286    0.610000     0.002533
O         0.679286    0.179286    0.643571     0.002533
O         0.679286    0.143571    0.608428     0.002533
O         0.643571    0.179286    0.608428     0.002533
BA        0.715000    0.143571    0.573571     0.002533
O         0.715000    0.179286    0.608428     0.002533
BA        0.072143    0.215000    0.573571     0.002533
TI        0.107857    0.250714    0.610000     0.002533
O         0.107857    0.250714    0.643571     0.002533
O         0.107857    0.215000    0.608428     0.002533
O         0.072143    0.250714    0.608428     0.002533
BA        0.143571    0.215000    0.573571     0.002533
TI        0.179286    0.250714    0.610000     0.002533
O         0.179286    0.250714    0.643571     0.002533
O         0.179286    0.215000    0.608428     0.002533
O         0.143571    0.250714    0.608428     0.002533
BA        0.215000    0.215000    0.573571     0.002533
TI        0.250714    0.250714    0.610000     0.002533
O         0.250714    0.250714    0.643571     0.002533
O         0.250714    0.215000    0.608428     0.002533
O         0.215000    0.250714    0.608428     0.002533
BA        0.286429    0.215000    0.573571     0.002533
TI        0.322143    0.250714    0.610000     0.002533
O         0.322143    0.250714    0.643571     0.002533
O         0.322143    0.215000    0.608428     0.002533
O         0.286429    0.250714    0.608428     0.002533
BA        0.357857    0.215000    0.573571     0.002533
TI        0.393571    0.250714    0.610000     0.002533
O         0.393571    0.250714    0.643571     0.002533
O         0.393571    0.215000    0.608428     0.002533
O         0.357857    0.250714    0.608428     0.002533
BA        0.429286    0.215000    0.573571     0.002533
TI        0.465000    0.250714    0.610000     0.002533
O         0.465000    0.250714    0.643571     0.002533
O         0.465000    0.215000    0.608428     0.002533
O         0.429286    0.250714    0.608428     0.002533
BA        0.500714    0.215000    0.573571     0.002533
TI        0.536429    0.250714    0.610000     0.002533
O         0.536429    0.250714    0.643571     0.002533
O         0.536429    0.215000    0.608428     0.002533
O         0.500714    0.250714    0.608428     0.002533
BA        0.572143    0.215000    0.573571     0.002533
TI        0.607857    0.250714    0.610000     0.002533
O         0.607857    0.250714    0.643571     0.002533
O         0.607857    0.215000    0.608428     0.002533
O         0.572143    0.250714    0.608428     0.002533
BA        0.643571    0.215000    0.573571     0.002533
TI        0.679286    0.250714    0.610000     0.002533
O         0.679286    0.250714    0.643571     0.002533
O         0.679286    0.215000    0.608428     0.002533
O         0.643571    0.250714    0.608428     0.002533
BA        0.715000    0.215000    0.573571     0.002533
TI        0.750714    0.250714    0.610000     0.002533
O         0.750714    0.250714    0.643571     0.002533
O         0.750714    0.215000    0.608428     0.002533
O         0.715000    0.250714    0.608428     0.002533
BA        0.786429    0.215000    0.573571     0.002533
O         0.786429    0.250714    0.608428     0.002533
BA        0.072143    0.286429    0.573571     0.002533
TI        0.107857    0.322143    0.610000     0.002533
O         0.107857    0.322143    0.643571     0.002533
O         0.107857    0.286429    0.608428     0.002533
O         0.072143    0.322143    0.608428     0.002533
BA        0.143571    0.286429    0.573571     0.002533
TI        0.179286    0.322143    0.610000     0.002533
O         0.179286    0.322143    0.643571     0.002533
O         0.179286    0.286429    0.608428     0.002533
O         0.143571    0.322143    0.608428     0.002533
BA        0.215000    0.286429    0.573571     0.002533
TI        0.250714    0.322143    0.610000     0.002533
O         0.250714    0.322143    0.643571     0.002533
O         0.250714    0.286429    0.608428     0.002533
O         0.215000    0.322143    0.608428     0.002533
BA        0.286429    0.286429    0.573571     0.002533
TI        0.322143    0.322143    0.610000     0.002533
O         0.322143    0.322143    0.643571     0.002533
O         0.322143    0.286429    0.608428     0.002533
O         0.286429    0.322143    0.608428     0.002533
BA        0.357857    0.286429    0.573571     0.002533
TI        0.393571    0.322143    0.610000     0.002533
O         0.393571    0.322143    0.643571     0.002533
O         0.393571    0.286429    0.608428     0.002533
O         0.357857    0.322143    0.608428     0.002533
BA        0.429286    0.286429    0.573571     0.002533
TI        0.465000    0.322143    0.610000     0.002533
O         0.465000    0.322143    0.643571     0.002533
O         0.465000    0.286429    0.608428     0.002533
O         0.429286    0.322143    0.608428     0.002533
BA        0.500714    0.286429    0.573571     0.002533
TI        0.536429    0.322143    0.610000     0.002533
O         0.536429    0.322143    0.643571     0.002533
O         0.536429    0.286429    0.608428     0.002533
O         0.500714    0.322143    0.608428     0.002533
BA        0.572143    0.286429    0.573571     0.002533
TI        0.607857    0.322143    0.610000     0.002533
O         0.607857    0.322143    0.643571     0.002533
O         0.607857    0.286429    0.608428     0.002533
O         0.572143    0.322143    0.608428     0.002533
BA        0.643571    0.286429    0.573571     0.002533
TI        0.679286    0.322143    0.610000     0.002533
O         0.679286    0.322143    0.643571     0.002533
O         0.679286    0.286429    0.608428     0.002533
O         0.643571    0.322143    0.608428     0.002533
BA        0.715000    0.286429    0.573571     0.002533
TI        0.750714    0.322143    0.610000     0.002533
O         0.750714    0.322143    0.643571     0.002533
O         0.750714    0.286429    0.608428     0.002533
O         0.715000    0.322143    0.608428     0.002533
BA        0.786429    0.286429    0.573571     0.002533
O         0.786429    0.322143    0.608428     0.002533
TI        0.036429    0.393571    0.610000     0.002533
O         0.036429    0.357857    0.608428     0.002533
BA        0.072143    0.357857    0.573571     0.002533
TI        0.107857    0.393571    0.610000     0.002533
O         0.107857    0.393571    0.643571     0.002533
O         0.107857    0.357857    0.608428     0.002533
O         0.072143    0.393571    0.608428     0.002533
BA        0.143571    0.357857    0.573571     0.002533
TI        0.179286    0.393571    0.610000     0.002533
O         0.179286    0.393571    0.643571     0.002533
O         0.179286    0.357857    0.608428     0.002533
O         0.143571    0.393571    0.608428     0.002533
BA        0.215000    0.357857    0.573571     0.002533
TI        0.250714    0.393571    0.610000     0.002533
O         0.250714    0.393571    0.643571     0.002533
O         0.250714    0.357857    0.608428     0.002533
O         0.215000    0.393571    0.608428     0.002533
BA        0.286429    0.357857    0.573571     0.002533
TI        0.322143    0.393571    0.610000     0.002533
O         0.322143    0.393571    0.643571     0.002533
O         0.322143    0.357857    0.608428     0.002533
O         0.286429    0.393571    0.608428     0.002533
BA        0.357857    0.357857    0.573571     0.002533
TI        0.393571    0.393571    0.610000     0.002533
O         0.393571    0.393571    0.643571     0.002533
O         0.393571    0.357857    0.608428     0.002533
O         0.357857    0.393571    0.608428     0.002533
BA        0.429286    0.357857    0.573571     0.002533
TI        0.465000    0.393571    0.610000     0.002533
O         0.465000    0.393571    0.643571     0.002533
O         0.465000    0.357857    0.608428     0.002533
O         0.429286    0.393571    0.608428     0.002533
BA        0.500714    0.357857    0.573571     0.002533
TI        0.536429    0.393571    0.610000     0.002533
O         0.536429    0.393571    0.643571     0.002533
O         0.536429    0.357857    0.608428     0.002533
O         0.500714    0.393571    0.608428     0.002533
BA        0.572143    0.357857    0.573571     0.002533
TI        0.607857    0.393571    0.610000     0.002533
O         0.607857    0.393571    0.643571     0.002533
O         0.607857    0.357857    0.608428     0.002533
O         0.572143    0.393571    0.608428     0.002533
BA        0.643571    0.357857    0.573571     0.002533
TI        0.679286    0.393571    0.610000     0.002533
O         0.679286    0.393571    0.643571     0.002533
O         0.679286    0.357857    0.608428     0.002533
O         0.643571    0.393571    0.608428     0.002533
BA        0.715000    0.357857    0.573571     0.002533
TI        0.750714    0.393571    0.610000     0.002533
O         0.750714    0.393571    0.643571     0.002533
O         0.750714    0.357857    0.608428     0.002533
O         0.715000    0.393571    0.608428     0.002533
BA        0.786429    0.357857    0.573571     0.002533
TI        0.822143    0.393571    0.610000     0.002533
O         0.822143    0.357857    0.608428     0.002533
O         0.786429    0.393571    0.608428     0.002533
TI        0.036429    0.465000    0.610000     0.002533
O         0.036429    0.429286    0.608428     0.002533
BA        0.072143    0.429286    0.573571     0.002533
TI        0.107857    0.465000    0.610000     0.002533
O         0.107857    0.465000    0.643571     0.002533
O         0.107857    0.429286    0.608428     0.002533
O         0.072143    0.465000    0.608428     0.002533
BA        0.143571    0.429286    0.573571     0.002533
TI        0.179286    0.465000    0.610000     0.002533
O         0.179286    0.465000    0.643571     0.002533
O         0.179286    0.429286    0.608428     0.002533
O         0.143571    0.465000    0.608428     0.002533
BA        0.215000    0.429286    0.573571     0.002533
TI        0.250714    0.465000    0.610000     0.002533
O         0.250714    0.465000    0.643571     0.002533
O         0.250714    0.429286    0.608428     0.002533
O         0.215000    0.465000    0.608428     0.002533
BA        0.286429    0.429286    0.573571     0.002533
TI        0.322143    0.465000    0.610000     0.002533
O         0.322143    0.465000    0.643571     0.002533
O         0.322143    0.429286    0.608428     0.002533
O         0.286429    0.465000    0.608428     0.002533
BA        0.357857    0.429286    0.573571     0.002533
TI        0.393571    0.465000    0.610000     0.002533
O         0.393571    0.465000    0.643571     0.002533
O         0.393571    0.429286    0.608428     0.002533
O         0.357857    0.465000    0.608428     0.002533
BA        0.429286    0.429286    0.573571     0.002533
TI        0.465000    0.465000    0.610000     0.002533
O         0.465000    0.465000    0.643571     0.002533
O         0.465000    0.429286    0.608428     0.002533
O         0.429286    0.465000    0.608428     0.002533
BA        0.500714    0.429286    0.573571     0.002533
TI        0.536429    0.465000    0.610000     0.002533
O         0.536429    0.465000    0.643571     0.002533
O         0.536429    0.429286    0.608428     0.002533
O         0.500714    0.465000    0.608428     0.002533
BA        0.572143    0.429286    0.573571     0.002533
TI        0.607857    0.465000    0.610000     0.002533
O         0.607857    0.465000    0.643571     0.002533
O         0.607857    0.429286    0.608428     0.002533
O         0.572143    0.465000    0.608428     0.002533
BA        0.643571    0.429286    0.573571     0.002533
TI        0.679286    0.465000    0.610000     0.002533
O         0.679286    0.465000    0.643571     0.002533
O         0.679286    0.429286    0.608428     0.002533
O         0.643571    0.465000    0.608428     0.002533
BA        0.715000    0.429286    0.573571     0.002533
TI        0.750714    0.465000    0.610000     0.002533
O         0.750714    0.465000    0.643571     0.002533
O         0.750714    0.429286    0.608428     0.002533
O         0.715000    0.465000    0.608428     0.002533
BA        0.786429    0.429286    0.573571     0.002533
TI        0.822143    0.465000    0.610000     0.002533
O         0.822143    0.429286    0.608428     0.002533
O         0.786429    0.465000    0.608428     0.002533
O         0.036429    0.500714    0.608428     0.002533
BA        0.072143    0.500714    0.573571     0.002533
TI        0.107857    0.536429    0.610000     0.002533
O         0.107857    0.536429    0.643571     0.002533
O         0.107857    0.500714    0.608428     0.002533
O         0.072143    0.536429    0.608428     0.002533
BA        0.143571    0.500714    0.573571     0.002533
TI        0.179286    0.536429    0.610000     0.002533
O         0.179286    0.536429    0.643571     0.002533
O         0.179286    0.500714    0.608428     0.002533
O         0.143571    0.536429    0.608428     0.002533
BA        0.215000    0.500714    0.573571     0.002533
TI        0.250714    0.536429    0.610000     0.002533
O         0.250714    0.536429    0.643571     0.002533
O         0.250714    0.500714    0.608428     0.002533
O         0.215000    0.536429    0.608428     0.002533
BA        0.286429    0.500714    0.573571     0.002533
TI        0.322143    0.536429    0.610000     0.002533
O         0.322143    0.536429    0.643571     0.002533
O         0.322143    0.500714    0.608428     0.002533
O         0.286429    0.536429    0.608428     0.002533
BA        0.357857    0.500714    0.573571     0.002533
TI        0.393571    0.536429    0.610000     0.002533
O         0.393571    0.536429    0.643571     0.002533
O         0.393571    0.500714    0.608428     0.002533
O         0.357857    0.536429    0.608428     0.002533
BA        0.429286    0.500714    0.573571     0.002533
TI        0.465000    0.536429    0.610000     0.002533
O         0.465000    0.536429    0.643571     0.002533
O         0.465000    0.500714    0.608428     0.002533
O         0.429286    0.536429    0.608428     0.002533
BA        0.500714    0.500714    0.573571     0.002533
TI        0.536429    0.536429    0.610000     0.002533
O         0.536429    0.536429    0.643571     0.002533
O         0.536429    0.500714    0.608428     0.002533
O         0.500714    0.536429    0.608428     0.002533
BA        0.572143    0.500714    0.573571     0.002533
TI        0.607857    0.536429    0.610000     0.002533
O         0.607857    0.536429    0.643571     0.002533
O         0.607857    0.500714    0.608428     0.002533
O         0.572143    0.536429    0.608428     0.002533
BA        0.643571    0.500714    0.573571     0.002533
TI        0.679286    0.536429    0.610000     0.002533
O         0.679286    0.536429    0.643571     0.002533
O         0.679286    0.500714    0.608428     0.002533
O         0.643571    0.536429    0.608428     0.002533
BA        0.715000    0.500714    0.573571     0.002533
TI        0.750714    0.536429    0.610000     0.002533
O         0.750714    0.536429    0.643571     0.002533
O         0.750714    0.500714    0.608428     0.002533
O         0.715000    0.536429    0.608428     0.002533
BA        0.786429    0.500714    0.573571     0.002533
O         0.822143    0.500714    0.608428     0.002533
O         0.786429    0.536429    0.608428     0.002533
BA        0.072143    0.572143    0.573571     0.002533
TI        0.107857    0.607857    0.610000     0.002533
O         0.107857    0.607857    0.643571     0.002533
O         0.107857    0.572143    0.608428     0.002533
O         0.072143    0.607857    0.608428     0.002533
BA        0.143571    0.572143    0.573571     0.002533
TI        0.179286    0.607857    0.610000     0.002533
O         0.179286    0.607857    0.643571     0.002533
O         0.179286    0.572143    0.608428     0.002533
O         0.143571    0.607857    0.608428     0.002533
BA        0.215000    0.572143    0.573571     0.002533
TI        0.250714    0.607857    0.610000     0.002533
O         0.250714    0.607857    0.643571     0.002533
O         0.250714    0.572143    0.608428     0.002533
O         0.215000    0.607857    0.608428     0.002533
BA        0.286429    0.572143    0.573571     0.002533
TI        0.322143    0.607857    0.610000     0.002533
O         0.322143    0.607857    0.643571     0.002533
O         0.322143    0.572143    0.608428     0.002533
O         0.286429    0.607857    0.608428     0.002533
BA        0.357857    0.572143    0.573571     0.002533
TI        0.393571    0.607857    0.610000     0.002533
O         0.393571    0.607857    0.643571     0.002533
O         0.393571    0.572143    0.608428     0.002533
O         0.357857    0.607857    0.608428     0.002533
BA        0.429286    0.572143    0.573571     0.002533
TI        0.465000    0.607857    0.610000     0.002533
O         0.465000    0.607857    0.643571     0.002533
O         0.465000    0.572143    0.608428     0.002533
O         0.429286    0.607857    0.608428     0.002533
BA        0.500714    0.572143    0.573571     0.002533
TI        0.536429    0.607857    0.610000     0.002533
O         0.536429    0.607857    0.643571     0.002533
O         0.536429    0.572143    0.608428     0.002533
O         0.500714    0.607857    0.608428     0.002533
BA        0.572143    0.572143    0.573571     0.002533
TI        0.607857    0.607857    0.610000     0.002533
O         0.607857    0.607857    0.643571     0.002533
O         0.607857    0.572143    0.608428     0.002533
O         0.572143    0.607857    0.608428     0.002533
BA        0.643571    0.572143    0.573571     0.002533
TI        0.679286    0.607857    0.610000     0.002533
O         0.679286    0.607857    0.643571     0.002533
O         0.679286    0.572143    0.608428     0.002533
O         0.643571    0.607857    0.608428     0.002533
BA        0.715000    0.572143    0.573571     0.002533
TI        0.750714    0.607857    0.610000     0.002533
O         0.750714    0.607857    0.643571     0.002533
O         0.750714    0.572143    0.608428     0.002533
O         0.715000    0.607857    0.608428     0.002533
BA        0.786429    0.572143    0.573571     0.002533
O         0.786429    0.607857    0.608428     0.002533
BA        0.072143    0.643571    0.573571     0.002533
O         0.107857    0.643571    0.608428     0.002533
BA        0.143571    0.643571    0.573571     0.002533
TI        0.179286    0.679286    0.610000     0.002533
O         0.179286    0.679286    0.643571     0.002533
O         0.179286    0.643571    0.608428     0.002533
O         0.143571    0.679286    0.608428     0.002533
BA        0.215000    0.643571    0.573571     0.002533
TI        0.250714    0.679286    0.610000     0.002533
O         0.250714    0.679286    0.643571     0.002533
O         0.250714    0.643571    0.608428     0.002533
O         0.215000    0.679286    0.608428     0.002533
BA        0.286429    0.643571    0.573571     0.002533
TI        0.322143    0.679286    0.610000     0.002533
O         0.322143    0.679286    0.643571     0.002533
O         0.322143    0.643571    0.608428     0.002533
O         0.286429    0.679286    0.608428     0.002533
BA        0.357857    0.643571    0.573571     0.002533
TI        0.393571    0.679286    0.610000     0.002533
O         0.393571    0.679286    0.643571     0.002533
O         0.393571    0.643571    0.608428     0.002533
O         0.357857    0.679286    0.608428     0.002533
BA        0.429286    0.643571    0.573571     0.002533
TI        0.465000    0.679286    0.610000     0.002533
O         0.465000    0.679286    0.643571     0.002533
O         0.465000    0.643571    0.608428     0.002533
O         0.429286    0.679286    0.608428     0.002533
BA        0.500714    0.643571    0.573571     0.002533
TI        0.536429    0.679286    0.610000     0.002533
O         0.536429    0.679286    0.643571     0.002533
O         0.536429    0.643571    0.608428     0.002533
O         0.500714    0.679286    0.608428     0.002533
BA        0.572143    0.643571    0.573571     0.002533
TI        0.607857    0.679286    0.610000     0.002533
O         0.607857    0.679286    0.643571     0.002533
O         0.607857    0.643571    0.608428     0.002533
O         0.572143    0.679286    0.608428     0.002533
BA        0.643571    0.643571    0.573571     0.002533
TI        0.679286    0.679286    0.610000     0.002533
O         0.679286    0.679286    0.643571     0.002533
O         0.679286    0.643571    0.608428     0.002533
O         0.643571    0.679286    0.608428     0.002533
BA        0.715000    0.643571    0.573571     0.002533
O         0.750714    0.643571    0.608428     0.002533
O         0.715000    0.679286    0.608428     0.002533
BA        0.786429    0.643571    0.573571     0.002533
BA        0.143571    0.715000    0.573571     0.002533
O         0.179286    0.715000    0.608428     0.002533
BA        0.215000    0.715000    0.573571     0.002533
TI        0.250714    0.750714    0.610000     0.002533
O         0.250714    0.750714    0.643571     0.002533
O         0.250714    0.715000    0.608428     0.002533
O         0.215000    0.750714    0.608428     0.002533
BA        0.286429    0.715000    0.573571     0.002533
TI        0.322143    0.750714    0.610000     0.002533
O         0.322143    0.750714    0.643571     0.002533
O         0.322143    0.715000    0.608428     0.002533
O         0.286429    0.750714    0.608428     0.002533
BA        0.357857    0.715000    0.573571     0.002533
TI        0.393571    0.750714    0.610000     0.002533
O         0.393571    0.750714    0.643571     0.002533
O         0.393571    0.715000    0.608428     0.002533
O         0.357857    0.750714    0.608428     0.002533
BA        0.429286    0.715000    0.573571     0.002533
TI        0.465000    0.750714    0.610000     0.002533
O         0.465000    0.750714    0.643571     0.002533
O         0.465000    0.715000    0.608428     0.002533
O         0.429286    0.750714    0.608428     0.002533
BA        0.500714    0.715000    0.573571     0.002533
TI        0.536429    0.750714    0.610000     0.002533
O         0.536429    0.750714    0.643571     0.002533
O         0.536429    0.715000    0.608428     0.002533
O         0.500714    0.750714    0.608428     0.002533
BA        0.572143    0.715000    0.573571     0.002533
TI        0.607857    0.750714    0.610000     0.002533
O         0.607857    0.750714    0.643571     0.002533
O         0.607857    0.715000    0.608428     0.002533
O         0.572143    0.750714    0.608428     0.002533
BA        0.643571    0.715000    0.573571     0.002533
O         0.679286    0.715000    0.608428     0.002533
O         0.643571    0.750714    0.608428     0.002533
BA        0.715000    0.715000    0.573571     0.002533
BA        0.215000    0.786429    0.573571     0.002533
O         0.250714    0.786429    0.608428     0.002533
BA        0.286429    0.786429    0.573571     0.002533
O         0.322143    0.786429    0.608428     0.002533
BA        0.357857    0.786429    0.573571     0.002533
TI        0.393571    0.822143    0.610000     0.002533
O         0.393571    0.786429    0.608428     0.002533
O         0.357857    0.822143    0.608428     0.002533
BA        0.429286    0.786429    0.573571     0.002533
TI        0.465000    0.822143    0.610000     0.002533
O         0.465000    0.786429    0.608428     0.002533
O         0.429286    0.822143    0.608428     0.002533
BA        0.500714    0.786429    0.573571     0.002533
O         0.536429    0.786429    0.608428     0.002533
O         0.500714    0.822143    0.608428     0.002533
BA        0.572143    0.786429    0.573571     0.002533
O         0.607857    0.786429    0.608428     0.002533
BA        0.643571    0.786429    0.573571     0.002533
BA        0.286429    0.072143    0.645000     0.002533
TI        0.322143    0.107857    0.681428     0.002533
O         0.322143    0.107857    0.715000     0.002533
O         0.286429    0.107857    0.679857     0.002533
BA        0.357857    0.072143    0.645000     0.002533
TI        0.393571    0.107857    0.681428     0.002533
O         0.393571    0.107857    0.715000     0.002533
O         0.393571    0.072143    0.679857     0.002533
O         0.357857    0.107857    0.679857     0.002533
BA        0.429286    0.072143    0.645000     0.002533
TI        0.465000    0.107857    0.681428     0.002533
O         0.465000    0.107857    0.715000     0.002533
O         0.465000    0.072143    0.679857     0.002533
O         0.429286    0.107857    0.679857     0.002533
BA        0.500714    0.072143    0.645000     0.002533
TI        0.536429    0.107857    0.681428     0.002533
O         0.536429    0.107857    0.715000     0.002533
O         0.500714    0.107857    0.679857     0.002533
BA        0.572143    0.072143    0.645000     0.002533
O         0.572143    0.107857    0.679857     0.002533
TI        0.179286    0.179286    0.681428     0.002533
BA        0.215000    0.143571    0.645000     0.002533
TI        0.250714    0.179286    0.681428     0.002533
O         0.250714    0.179286    0.715000     0.002533
O         0.250714    0.143571    0.679857     0.002533
O         0.215000    0.179286    0.679857     0.002533
BA        0.286429    0.143571    0.645000     0.002533
TI        0.322143    0.179286    0.681428     0.002533
O         0.322143    0.179286    0.715000     0.002533
O         0.322143    0.143571    0.679857     0.002533
O         0.286429    0.179286    0.679857     0.002533
BA        0.357857    0.143571    0.645000     0.002533
TI        0.393571    0.179286    0.681428     0.002533
O         0.393571    0.179286    0.715000     0.002533
O         0.393571    0.143571    0.679857     0.002533
O         0.357857    0.179286    0.679857     0.002533
BA        0.429286    0.143571    0.645000     0.002533
TI        0.465000    0.179286    0.681428     0.002533
O         0.465000    0.179286    0.715000     0.002533
O         0.465000    0.143571    0.679857     0.002533
O         0.429286    0.179286    0.679857     0.002533
BA        0.500714    0.143571    0.645000     0.002533
TI        0.536429    0.179286    0.681428     0.002533
O         0.536429    0.179286    0.715000     0.002533
O         0.536429    0.143571    0.679857     0.002533
O         0.500714    0.179286    0.679857     0.002533
BA        0.572143    0.143571    0.645000     0.002533
TI        0.607857    0.179286    0.681428     0.002533
O         0.607857    0.179286    0.715000     0.002533
O         0.607857    0.143571    0.679857     0.002533
O         0.572143    0.179286    0.679857     0.002533
BA        0.643571    0.143571    0.645000     0.002533
TI        0.679286    0.179286    0.681428     0.002533
O         0.643571    0.179286    0.679857     0.002533
BA        0.143571    0.215000    0.645000     0.002533
TI        0.179286    0.250714    0.681428     0.002533
O         0.179286    0.250714    0.715000     0.002533
O         0.179286    0.215000    0.679857     0.002533
O         0.143571    0.250714    0.679857     0.002533
BA        0.215000    0.215000    0.645000     0.002533
TI        0.250714    0.250714    0.681428     0.002533
O         0.250714    0.250714    0.715000     0.002533
O         0.250714    0.215000    0.679857     0.002533
O         0.215000    0.250714    0.679857     0.002533
BA        0.286429    0.215000    0.645000     0.002533
TI        0.322143    0.250714    0.681428     0.002533
O         0.322143    0.250714    0.715000     0.002533
O         0.322143    0.215000    0.679857     0.002533
O         0.286429    0.250714    0.679857     0.002533
BA        0.357857    0.215000    0.645000     0.002533
TI        0.393571    0.250714    0.681428     0.002533
O         0.393571    0.250714    0.715000     0.002533
O         0.393571    0.215000    0.679857     0.002533
O         0.357857    0.250714    0.679857     0.002533
BA        0.429286    0.215000    0.645000     0.002533
TI        0.465000    0.250714    0.681428     0.002533
O         0.465000    0.250714    0.715000     0.002533
O         0.465000    0.215000    0.679857     0.002533
O         0.429286    0.250714    0.679857     0.002533
BA        0.500714    0.215000    0.645000     0.002533
TI        0.536429    0.250714    0.681428     0.002533
O         0.536429    0.250714    0.715000     0.002533
O         0.536429    0.215000    0.679857     0.002533
O         0.500714    0.250714    0.679857     0.002533
BA        0.572143    0.215000    0.645000     0.002533
TI        0.607857    0.250714    0.681428     0.002533
O         0.607857    0.250714    0.715000     0.002533
O         0.607857    0.215000    0.679857     0.002533
O         0.572143    0.250714    0.679857     0.002533
BA        0.643571    0.215000    0.645000     0.002533
TI        0.679286    0.250714    0.681428     0.002533
O         0.679286    0.250714    0.715000     0.002533
O         0.679286    0.215000    0.679857     0.002533
O         0.643571    0.250714    0.679857     0.002533
BA        0.715000    0.215000    0.645000     0.002533
O         0.715000    0.250714    0.679857     0.002533
BA        0.072143    0.286429    0.645000     0.002533
TI        0.107857    0.322143    0.681428     0.002533
O         0.107857    0.322143    0.715000     0.002533
O         0.107857    0.286429    0.679857     0.002533
BA        0.143571    0.286429    0.645000     0.002533
TI        0.179286    0.322143    0.681428     0.002533
O         0.179286    0.322143    0.715000     0.002533
O         0.179286    0.286429    0.679857     0.002533
O         0.143571    0.322143    0.679857     0.002533
BA        0.215000    0.286429    0.645000     0.002533
TI        0.250714    0.322143    0.681428     0.002533
O         0.250714    0.322143    0.715000     0.002533
O         0.250714    0.286429    0.679857     0.002533
O         0.215000    0.322143    0.679857     0.002533
BA        0.286429    0.286429    0.645000     0.002533
TI        0.322143    0.322143    0.681428     0.002533
O         0.322143    0.322143    0.715000     0.002533
O         0.322143    0.286429    0.679857     0.002533
O         0.286429    0.322143    0.679857     0.002533
BA        0.357857    0.286429    0.645000     0.002533
TI        0.393571    0.322143    0.681428     0.002533
O         0.393571    0.322143    0.715000     0.002533
O         0.393571    0.286429    0.679857     0.002533
O         0.357857    0.322143    0.679857     0.002533
BA        0.429286    0.286429    0.645000     0.002533
TI        0.465000    0.322143    0.681428     0.002533
O         0.465000    0.322143    0.715000     0.002533
O         0.465000    0.286429    0.679857     0.002533
O         0.429286    0.322143    0.679857     0.002533
BA        0.500714    0.286429    0.645000     0.002533
TI        0.536429    0.322143    0.681428     0.002533
O         0.536429    0.322143    0.715000     0.002533
O         0.536429    0.286429    0.679857     0.002533
O         0.500714    0.322143    0.679857     0.002533
BA        0.572143    0.286429    0.645000     0.002533
TI        0.607857    0.322143    0.681428     0.002533
O         0.607857    0.322143    0.715000     0.002533
O         0.607857    0.286429    0.679857     0.002533
O         0.572143    0.322143    0.679857     0.002533
BA        0.643571    0.286429    0.645000     0.002533
TI        0.679286    0.322143    0.681428     0.002533
O         0.679286    0.322143    0.715000     0.002533
O         0.679286    0.286429    0.679857     0.002533
O         0.643571    0.322143    0.679857     0.002533
BA        0.715000    0.286429    0.645000     0.002533
TI        0.750714    0.322143    0.681428     0.002533
O         0.750714    0.322143    0.715000     0.002533
O         0.750714    0.286429    0.679857     0.002533
O         0.715000    0.322143    0.679857     0.002533
BA        0.786429    0.286429    0.645000     0.002533
BA        0.072143    0.357857    0.645000     0.002533
TI        0.107857    0.393571    0.681428     0.002533
O         0.107857    0.393571    0.715000     0.002533
O         0.107857    0.357857    0.679857     0.002533
O         0.072143    0.393571    0.679857     0.002533
BA        0.143571    0.357857    0.645000     0.002533
TI        0.179286    0.393571    0.681428     0.002533
O         0.179286    0.393571    0.715000     0.002533
O         0.179286    0.357857    0.679857     0.002533
O         0.143571    0.393571    0.679857     0.002533
BA        0.215000    0.357857    0.645000     0.002533
TI        0.250714    0.393571    0.681428     0.002533
O         0.250714    0.393571    0.715000     0.002533
O         0.250714    0.357857    0.679857     0.002533
O         0.215000    0.393571    0.679857     0.002533
BA        0.286429    0.357857    0.645000     0.002533
TI        0.322143    0.393571    0.681428     0.002533
O         0.322143    0.393571    0.715000     0.002533
O         0.322143    0.357857    0.679857     0.002533
O         0.286429    0.393571    0.679857     0.002533
BA        0.357857    0.357857    0.645000     0.002533
TI        0.393571    0.393571    0.681428     0.002533
O         0.393571    0.393571    0.715000     0.002533
O         0.393571    0.357857    0.679857     0.002533
O         0.357857    0.393571    0.679857     0.002533
BA        0.429286    0.357857    0.645000     0.002533
TI        0.465000    0.393571    0.681428     0.002533
O         0.465000    0.393571    0.715000     0.002533
O         0.465000    0.357857    0.679857     0.002533
O         0.429286    0.393571    0.679857     0.002533
BA        0.500714    0.357857    0.645000     0.002533
TI        0.536429    0.393571    0.681428     0.002533
O         0.536429    0.393571    0.715000     0.002533
O         0.536429    0.357857    0.679857     0.002533
O         0.500714    0.393571    0.679857     0.002533
BA        0.572143    0.357857    0.645000     0.002533
TI        0.607857    0.393571    0.681428     0.002533
O         0.607857    0.393571    0.715000     0.002533
O         0.607857    0.357857    0.679857     0.002533
O         0.572143    0.393571    0.679857     0.002533
BA        0.643571    0.357857    0.645000     0.002533
TI        0.679286    0.393571    0.681428     0.002533
O         0.679286    0.393571    0.715000     0.002533
O         0.679286    0.357857    0.679857     0.002533
O         0.643571    0.393571    0.679857     0.002533
BA        0.715000    0.357857    0.645000     0.002533
TI        0.750714    0.393571    0.681428     0.002533
O         0.750714    0.393571    0.715000     0.002533
O         0.750714    0.357857    0.679857     0.002533
O         0.715000    0.393571    0.679857     0.002533
BA        0.786429    0.357857    0.645000     0.002533
O         0.786429    0.393571    0.679857     0.002533
BA        0.072143    0.429286    0.645000     0.002533
TI        0.107857    0.465000    0.681428     0.002533
O         0.107857    0.465000    0.715000     0.002533
O         0.107857    0.429286    0.679857     0.002533
O         0.072143    0.465000    0.679857     0.002533
BA        0.143571    0.429286    0.645000     0.002533
TI        0.179286    0.465000    0.681428     0.002533
O         0.179286    0.465000    0.715000     0.002533
O         0.179286    0.429286    0.679857     0.002533
O         0.143571    0.465000    0.679857     0.002533
BA        0.215000    0.429286    0.645000     0.002533
TI        0.250714    0.465000    0.681428     0.002533
O         0.250714    0.465000    0.715000     0.002533
O         0.250714    0.429286    0.679857     0.002533
O         0.215000    0.465000    0.679857     0.002533
BA        0.286429    0.429286    0.645000     0.002533
TI        0.322143    0.465000    0.681428     0.002533
O         0.322143    0.465000    0.715000     0.002533
O         0.322143    0.429286    0.679857     0.002533
O         0.286429    0.465000    0.679857     0.002533
BA        0.357857    0.429286    0.645000     0.002533
TI        0.393571    0.465000    0.681428     0.002533
O         0.393571    0.465000    0.715000     0.002533
O         0.393571    0.429286    0.679857     0.002533
O         0.357857    0.465000    0.679857     0.002533
BA        0.429286    0.429286    0.645000     0.002533
TI        0.465000    0.465000    0.681428     0.002533
O         0.465000    0.465000    0.715000     0.002533
O         0.465000    0.429286    0.679857     0.002533
O         0.429286    0.465000    0.679857     0.002533
BA        0.500714    0.429286    0.645000     0.002533
TI        0.536429    0.465000    0.681428     0.002533
O         0.536429    0.465000    0.715000     0.002533
O         0.536429    0.429286    0.679857     0.002533
O         0.500714    0.465000    0.679857     0.002533
BA        0.572143    0.429286    0.645000     0.002533
TI        0.607857    0.465000    0.681428     0.002533
O         0.607857    0.465000    0.715000     0.002533
O         0.607857    0.429286    0.679857     0.002533
O         0.572143    0.465000    0.679857     0.002533
BA        0.643571    0.429286    0.645000     0.002533
TI        0.679286    0.465000    0.681428     0.002533
O         0.679286    0.465000    0.715000     0.002533
O         0.679286    0.429286    0.679857     0.002533
O         0.643571    0.465000    0.679857     0.002533
BA        0.715000    0.429286    0.645000     0.002533
TI        0.750714    0.465000    0.681428     0.002533
O         0.750714    0.465000    0.715000     0.002533
O         0.750714    0.429286    0.679857     0.002533
O         0.715000    0.465000    0.679857     0.002533
BA        0.786429    0.429286    0.645000     0.002533
O         0.786429    0.465000    0.679857     0.002533
BA        0.072143    0.500714    0.645000     0.002533
TI        0.107857    0.536429    0.681428     0.002533
O         0.107857    0.536429    0.715000     0.002533
O         0.107857    0.500714    0.679857     0.002533
BA        0.143571    0.500714    0.645000     0.002533
TI        0.179286    0.536429    0.681428     0.002533
O         0.179286    0.536429    0.715000     0.002533
O         0.179286    0.500714    0.679857     0.002533
O         0.143571    0.536429    0.679857     0.002533
BA        0.215000    0.500714    0.645000     0.002533
TI        0.250714    0.536429    0.681428     0.002533
O         0.250714    0.536429    0.715000     0.002533
O         0.250714    0.500714    0.679857     0.002533
O         0.215000    0.536429    0.679857     0.002533
BA        0.286429    0.500714    0.645000     0.002533
TI        0.322143    0.536429    0.681428     0.002533
O         0.322143    0.536429    0.715000     0.002533
O         0.322143    0.500714    0.679857     0.002533
O         0.286429    0.536429    0.679857     0.002533
BA        0.357857    0.500714    0.645000     0.002533
TI        0.393571    0.536429    0.681428     0.002533
O         0.393571    0.536429    0.715000     0.002533
O         0.393571    0.500714    0.679857     0.002533
O         0.357857    0.536429    0.679857     0.002533
BA        0.429286    0.500714    0.645000     0.002533
TI        0.465000    0.536429    0.681428     0.002533
O         0.465000    0.536429    0.715000     0.002533
O         0.465000    0.500714    0.679857     0.002533
O         0.429286    0.536429    0.679857     0.002533
BA        0.500714    0.500714    0.645000     0.002533
TI        0.536429    0.536429    0.681428     0.002533
O         0.536429    0.536429    0.715000     0.002533
O         0.536429    0.500714    0.679857     0.002533
O         0.500714    0.536429    0.679857     0.002533
BA        0.572143    0.500714    0.645000     0.002533
TI        0.607857    0.536429    0.681428     0.002533
O         0.607857    0.536429    0.715000     0.002533
O         0.607857    0.500714    0.679857     0.002533
O         0.572143    0.536429    0.679857     0.002533
BA        0.643571    0.500714    0.645000     0.002533
TI        0.679286    0.536429    0.681428     0.002533
O         0.679286    0.536429    0.715000     0.002533
O         0.679286    0.500714    0.679857     0.002533
O         0.643571    0.536429    0.679857     0.002533
BA        0.715000    0.500714    0.645000     0.002533
TI        0.750714    0.536429    0.681428     0.002533
O         0.750714    0.536429    0.715000     0.002533
O         0.750714    0.500714    0.679857     0.002533
O         0.715000    0.536429    0.679857     0.002533
BA        0.786429    0.500714    0.645000     0.002533
BA        0.072143    0.572143    0.645000     0.002533
O         0.107857    0.572143    0.679857     0.002533
BA        0.143571    0.572143    0.645000     0.002533
TI        0.179286    0.607857    0.681428     0.002533
O         0.179286    0.607857    0.715000     0.002533
O         0.179286    0.572143    0.679857     0.002533
O         0.143571    0.607857    0.679857     0.002533
BA        0.215000    0.572143    0.645000     0.002533
TI        0.250714    0.607857    0.681428     0.002533
O         0.250714    0.607857    0.715000     0.002533
O         0.250714    0.572143    0.679857     0.002533
O         0.215000    0.607857    0.679857     0.002533
BA        0.286429    0.572143    0.645000     0.002533
TI        0.322143    0.607857    0.681428     0.002533
O         0.322143    0.607857    0.715000     0.002533
O         0.322143    0.572143    0.679857     0.002533
O         0.286429    0.607857    0.679857     0.002533
BA        0.357857    0.572143    0.645000     0.002533
TI        0.393571    0.607857    0.681428     0.002533
O         0.393571    0.607857    0.715000     0.002533
O         0.393571    0.572143    0.679857     0.002533
O         0.357857    0.607857    0.679857     0.002533
BA        0.429286    0.572143    0.645000     0.002533
TI        0.465000    0.607857    0.681428     0.002533
O         0.465000    0.607857    0.715000     0.002533
O         0.465000    0.572143    0.679857     0.002533
O         0.429286    0.607857    0.679857     0.002533
BA        0.500714    0.572143    0.645000     0.002533
TI        0.536429    0.607857    0.681428     0.002533
O         0.536429    0.607857    0.715000     0.002533
O         0.536429    0.572143    0.679857     0.002533
O         0.500714    0.607857    0.679857     0.002533
BA        0.572143    0.572143    0.645000     0.002533
TI        0.607857    0.607857    0.681428     0.002533
O         0.607857    0.607857    0.715000     0.002533
O         0.607857    0.572143    0.679857     0.002533
O         0.572143    0.607857    0.679857     0.002533
BA        0.643571    0.572143    0.645000     0.002533
TI        0.679286    0.607857    0.681428     0.002533
O         0.679286    0.607857    0.715000     0.002533
O         0.679286    0.572143    0.679857     0.002533
O         0.643571    0.607857    0.679857     0.002533
BA        0.715000    0.572143    0.645000     0.002533
O         0.750714    0.572143    0.679857     0.002533
O         0.715000    0.607857    0.679857     0.002533
BA        0.786429    0.572143    0.645000     0.002533
BA        0.143571    0.643571    0.645000     0.002533
TI        0.179286    0.679286    0.681428     0.002533
O         0.179286    0.643571    0.679857     0.002533
BA        0.215000    0.643571    0.645000     0.002533
TI        0.250714    0.679286    0.681428     0.002533
O         0.250714    0.679286    0.715000     0.002533
O         0.250714    0.643571    0.679857     0.002533
O         0.215000    0.679286    0.679857     0.002533
BA        0.286429    0.643571    0.645000     0.002533
TI        0.322143    0.679286    0.681428     0.002533
O         0.322143    0.679286    0.715000     0.002533
O         0.322143    0.643571    0.679857     0.002533
O         0.286429    0.679286    0.679857     0.002533
BA        0.357857    0.643571    0.645000     0.002533
TI        0.393571    0.679286    0.681428     0.002533
O         0.393571    0.679286    0.715000     0.002533
O         0.393571    0.643571    0.679857     0.002533
O         0.357857    0.679286    0.679857     0.002533
BA        0.429286    0.643571    0.645000     0.002533
TI        0.465000    0.679286    0.681428     0.002533
O         0.465000    0.679286    0.715000     0.002533
O         0.465000    0.643571    0.679857     0.002533
O         0.429286    0.679286    0.679857     0.002533
BA        0.500714    0.643571    0.645000     0.002533
TI        0.536429    0.679286    0.681428     0.002533
O         0.536429    0.679286    0.715000     0.002533
O         0.536429    0.643571    0.679857     0.002533
O         0.500714    0.679286    0.679857     0.002533
BA        0.572143    0.643571    0.645000     0.002533
TI        0.607857    0.679286    0.681428     0.002533
O         0.607857    0.679286    0.715000     0.002533
O         0.607857    0.643571    0.679857     0.002533
O         0.572143    0.679286    0.679857     0.002533
BA        0.643571    0.643571    0.645000     0.002533
TI        0.679286    0.679286    0.681428     0.002533
O         0.679286    0.643571    0.679857     0.002533
O         0.643571    0.679286    0.679857     0.002533
BA        0.715000    0.643571    0.645000     0.002533
BA        0.215000    0.715000    0.645000     0.002533
O         0.250714    0.715000    0.679857     0.002533
BA        0.286429    0.715000    0.645000     0.002533
TI        0.322143    0.750714    0.681428     0.002533
O         0.322143    0.750714    0.715000     0.002533
O         0.322143    0.715000    0.679857     0.002533
O         0.286429    0.750714    0.679857     0.002533
BA        0.357857    0.715000    0.645000     0.002533
TI        0.393571    0.750714    0.681428     0.002533
O         0.393571    0.750714    0.715000     0.002533
O         0.393571    0.715000    0.679857     0.002533
O         0.357857    0.750714    0.679857     0.002533
BA        0.429286    0.715000    0.645000     0.002533
TI        0.465000    0.750714    0.681428     0.002533
O         0.465000    0.750714    0.715000     0.002533
O         0.465000    0.715000    0.679857     0.002533
O         0.429286    0.750714    0.679857     0.002533
BA        0.500714    0.715000    0.645000     0.002533
TI        0.536429    0.750714    0.681428     0.002533
O         0.536429    0.750714    0.715000     0.002533
O         0.536429    0.715000    0.679857     0.002533
O         0.500714    0.750714    0.679857     0.002533
BA        0.572143    0.715000    0.645000     0.002533
O         0.607857    0.715000    0.679857     0.002533
O         0.572143    0.750714    0.679857     0.002533
BA        0.643571    0.715000    0.645000     0.002533
BA        0.286429    0.786429    0.645000     0.002533
BA        0.357857    0.786429    0.645000     0.002533
O         0.393571    0.786429    0.679857     0.002533
BA        0.429286    0.786429    0.645000     0.002533
O         0.465000    0.786429    0.679857     0.002533
BA        0.500714    0.786429    0.645000     0.002533
BA        0.572143    0.786429    0.645000     0.002533
BA        0.286429    0.143571    0.716428     0.002533
TI        0.322143    0.179286    0.752857     0.002533
O         0.286429    0.179286    0.751286     0.002533
BA        0.357857    0.143571    0.716428     0.002533
TI        0.393571    0.179286    0.752857     0.002533
O         0.393571    0.179286    0.786428     0.002533
O         0.393571    0.143571    0.751286     0.002533
O         0.357857    0.179286    0.751286     0.002533
BA        0.429286    0.143571    0.716428     0.002533
TI        0.465000    0.179286    0.752857     0.002533
O         0.465000    0.179286    0.786428     0.002533
O         0.465000    0.143571    0.751286     0.002533
O         0.429286    0.179286    0.751286     0.002533
BA        0.500714    0.143571    0.716428     0.002533
TI        0.536429    0.179286    0.752857     0.002533
O         0.500714    0.179286    0.751286     0.002533
BA        0.572143    0.143571    0.716428     0.002533
O         0.572143    0.179286    0.751286     0.002533
BA        0.215000    0.215000    0.716428     0.002533
TI        0.250714    0.250714    0.752857     0.002533
O         0.250714    0.250714    0.786428     0.002533
O         0.250714    0.215000    0.751286     0.002533
O         0.215000    0.250714    0.751286     0.002533
BA        0.286429    0.215000    0.716428     0.002533
TI        0.322143    0.250714    0.752857     0.002533
O         0.322143    0.250714    0.786428     0.002533
O         0.322143    0.215000    0.751286     0.002533
O         0.286429    0.250714    0.751286     0.002533
BA        0.357857    0.215000    0.716428     0.002533
TI        0.393571    0.250714    0.752857     0.002533
O         0.393571    0.250714    0.786428     0.002533
O         0.393571    0.215000    0.751286     0.002533
O         0.357857    0.250714    0.751286     0.002533
BA        0.429286    0.215000    0.716428     0.002533
TI        0.465000    0.250714    0.752857     0.002533
O         0.465000    0.250714    0.786428     0.002533
O         0.465000    0.215000    0.751286     0.002533
O         0.429286    0.250714    0.751286     0.002533
BA        0.500714    0.215000    0.716428     0.002533
TI        0.536429    0.250714    0.752857     0.002533
O         0.536429    0.250714    0.786428     0.002533
O         0.536429    0.215000    0.751286     0.002533
O         0.500714    0.250714    0.751286     0.002533
BA        0.572143    0.215000    0.716428     0.002533
TI        0.607857    0.250714    0.752857     0.002533
O         0.607857    0.250714    0.786428     0.002533
O         0.607857    0.215000    0.751286     0.002533
O         0.572143    0.250714    0.751286     0.002533
BA        0.643571    0.215000    0.716428     0.002533
O         0.643571    0.250714    0.751286     0.002533
BA        0.143571    0.286429    0.716428     0.002533
TI        0.179286    0.322143    0.752857     0.002533
O         0.179286    0.286429    0.751286     0.002533
BA        0.215000    0.286429    0.716428     0.002533
TI        0.250714    0.322143    0.752857     0.002533
O         0.250714    0.322143    0.786428     0.002533
O         0.250714    0.286429    0.751286     0.002533
O         0.215000    0.322143    0.751286     0.002533
BA        0.286429    0.286429    0.716428     0.002533
TI        0.322143    0.322143    0.752857     0.002533
O         0.322143    0.322143    0.786428     0.002533
O         0.322143    0.286429    0.751286     0.002533
O         0.286429    0.322143    0.751286     0.002533
BA        0.357857    0.286429    0.716428     0.002533
TI        0.393571    0.322143    0.752857     0.002533
O         0.393571    0.322143    0.786428     0.002533
O         0.393571    0.286429    0.751286     0.002533
O         0.357857    0.322143    0.751286     0.002533
BA        0.429286    0.286429    0.716428     0.002533
TI        0.465000    0.322143    0.752857     0.002533
O         0.465000    0.322143    0.786428     0.002533
O         0.465000    0.286429    0.751286     0.002533
O         0.429286    0.322143    0.751286     0.002533
BA        0.500714    0.286429    0.716428     0.002533
TI        0.536429    0.322143    0.752857     0.002533
O         0.536429    0.322143    0.786428     0.002533
O         0.536429    0.286429    0.751286     0.002533
O         0.500714    0.322143    0.751286     0.002533
BA        0.572143    0.286429    0.716428     0.002533
TI        0.607857    0.322143    0.752857     0.002533
O         0.607857    0.322143    0.786428     0.002533
O         0.607857    0.286429    0.751286     0.002533
O         0.572143    0.322143    0.751286     0.002533
BA        0.643571    0.286429    0.716428     0.002533
TI        0.679286    0.322143    0.752857     0.002533
O         0.679286    0.286429    0.751286     0.002533
O         0.643571    0.322143    0.751286     0.002533
BA        0.715000    0.286429    0.716428     0.002533
BA        0.143571    0.357857    0.716428     0.002533
TI        0.179286    0.393571    0.752857     0.002533
O         0.179286    0.393571    0.786428     0.002533
O         0.179286    0.357857    0.751286     0.002533
O         0.143571    0.393571    0.751286     0.002533
BA        0.215000    0.357857    0.716428     0.002533
TI        0.250714    0.393571    0.752857     0.002533
O         0.250714    0.393571    0.786428     0.002533
O         0.250714    0.357857    0.751286     0.002533
O         0.215000    0.393571    0.751286     0.002533
BA        0.286429    0.357857    0.716428     0.002533
TI        0.322143    0.393571    0.752857     0.002533
O         0.322143    0.393571    0.786428     0.002533
O         0.322143    0.357857    0.751286     0.002533
O         0.286429    0.393571    0.751286     0.002533
BA        0.357857    0.357857    0.716428     0.002533
TI        0.393571    0.393571    0.752857     0.002533
O         0.393571    0.393571    0.786428     0.002533
O         0.393571    0.357857    0.751286     0.002533
O         0.357857    0.393571    0.751286     0.002533
BA        0.429286    0.357857    0.716428     0.002533
TI        0.465000    0.393571    0.752857     0.002533
O         0.465000    0.393571    0.786428     0.002533
O         0.465000    0.357857    0.751286     0.002533
O         0.429286    0.393571    0.751286     0.002533
BA        0.500714    0.357857    0.716428     0.002533
TI        0.536429    0.393571    0.752857     0.002533
O         0.536429    0.393571    0.786428     0.002533
O         0.536429    0.357857    0.751286     0.002533
O         0.500714    0.393571    0.751286     0.002533
BA        0.572143    0.357857    0.716428     0.002533
TI        0.607857    0.393571    0.752857     0.002533
O         0.607857    0.393571    0.786428     0.002533
O         0.607857    0.357857    0.751286     0.002533
O         0.572143    0.393571    0.751286     0.002533
BA        0.643571    0.357857    0.716428     0.002533
TI        0.679286    0.393571    0.752857     0.002533
O         0.679286    0.393571    0.786428     0.002533
O         0.679286    0.357857    0.751286     0.002533
O         0.643571    0.393571    0.751286     0.002533
BA        0.715000    0.357857    0.716428     0.002533
O         0.715000    0.393571    0.751286     0.002533
BA        0.143571    0.429286    0.716428     0.002533
TI        0.179286    0.465000    0.752857     0.002533
O         0.179286    0.465000    0.786428     0.002533
O         0.179286    0.429286    0.751286     0.002533
O         0.143571    0.465000    0.751286     0.002533
BA        0.215000    0.429286    0.716428     0.002533
TI        0.250714    0.465000    0.752857     0.002533
O         0.250714    0.465000    0.786428     0.002533
O         0.250714    0.429286    0.751286     0.002533
O         0.215000    0.465000    0.751286     0.002533
BA        0.286429    0.429286    0.716428     0.002533
TI        0.322143    0.465000    0.752857     0.002533
O         0.322143    0.465000    0.786428     0.002533
O         0.322143    0.429286    0.751286     0.002533
O         0.286429    0.465000    0.751286     0.002533
BA        0.357857    0.429286    0.716428     0.002533
TI        0.393571    0.465000    0.752857     0.002533
O         0.393571    0.465000    0.786428     0.002533
O         0.393571    0.429286    0.751286     0.002533
O         0.357857    0.465000    0.751286     0.002533
BA        0.429286    0.429286    0.716428     0.002533
TI        0.465000    0.465000    0.752857     0.002533
O         0.465000    0.465000    0.786428     0.002533
O         0.465000    0.429286    0.751286     0.002533
O         0.429286    0.465000    0.751286     0.002533
BA        0.500714    0.429286    0.716428     0.002533
TI        0.536429    0.465000    0.752857     0.002533
O         0.536429    0.465000    0.786428     0.002533
O         0.536429    0.429286    0.751286     0.002533
O         0.500714    0.465000    0.751286     0.002533
BA        0.572143    0.429286    0.716428     0.002533
TI        0.607857    0.465000    0.752857     0.002533
O         0.607857    0.465000    0.786428     0.002533
O         0.607857    0.429286    0.751286     0.002533
O         0.572143    0.465000    0.751286     0.002533
BA        0.643571    0.429286    0.716428     0.002533
TI        0.679286    0.465000    0.752857     0.002533
O         0.679286    0.465000    0.786428     0.002533
O         0.679286    0.429286    0.751286     0.002533
O         0.643571    0.465000    0.751286     0.002533
BA        0.715000    0.429286    0.716428     0.002533
O         0.715000    0.465000    0.751286     0.002533
BA        0.143571    0.500714    0.716428     0.002533
TI        0.179286    0.536429    0.752857     0.002533
O         0.179286    0.500714    0.751286     0.002533
BA        0.215000    0.500714    0.716428     0.002533
TI        0.250714    0.536429    0.752857     0.002533
O         0.250714    0.536429    0.786428     0.002533
O         0.250714    0.500714    0.751286     0.002533
O         0.215000    0.536429    0.751286     0.002533
BA        0.286429    0.500714    0.716428     0.002533
TI        0.322143    0.536429    0.752857     0.002533
O         0.322143    0.536429    0.786428     0.002533
O         0.322143    0.500714    0.751286     0.002533
O         0.286429    0.536429    0.751286     0.002533
BA        0.357857    0.500714    0.716428     0.002533
TI        0.393571    0.536429    0.752857     0.002533
O         0.393571    0.536429    0.786428     0.002533
O         0.393571    0.500714    0.751286     0.002533
O         0.357857    0.536429    0.751286     0.002533
BA        0.429286    0.500714    0.716428     0.002533
TI        0.465000    0.536429    0.752857     0.002533
O         0.465000    0.536429    0.786428     0.002533
O         0.465000    0.500714    0.751286     0.002533
O         0.429286    0.536429    0.751286     0.002533
BA        0.500714    0.500714    0.716428     0.002533
TI        0.536429    0.536429    0.752857     0.002533
O         0.536429    0.536429    0.786428     0.002533
O         0.536429    0.500714    0.751286     0.002533
O         0.500714    0.536429    0.751286     0.002533
BA        0.572143    0.500714    0.716428     0.002533
TI        0.607857    0.536429    0.752857     0.002533
O         0.607857    0.536429    0.786428     0.002533
O         0.607857    0.500714    0.751286     0.002533
O         0.572143    0.536429    0.751286     0.002533
BA        0.643571    0.500714    0.716428     0.002533
TI        0.679286    0.536429    0.752857     0.002533
O         0.679286    0.500714    0.751286     0.002533
O         0.643571    0.536429    0.751286     0.002533
BA        0.715000    0.500714    0.716428     0.002533
BA        0.143571    0.572143    0.716428     0.002533
O         0.179286    0.572143    0.751286     0.002533
BA        0.215000    0.572143    0.716428     0.002533
TI        0.250714    0.607857    0.752857     0.002533
O         0.250714    0.607857    0.786428     0.002533
O         0.250714    0.572143    0.751286     0.002533
O         0.215000    0.607857    0.751286     0.002533
BA        0.286429    0.572143    0.716428     0.002533
TI        0.322143    0.607857    0.752857     0.002533
O         0.322143    0.607857    0.786428     0.002533
O         0.322143    0.572143    0.751286     0.002533
O         0.286429    0.607857    0.751286     0.002533
BA        0.357857    0.572143    0.716428     0.002533
TI        0.393571    0.607857    0.752857     0.002533
O         0.393571    0.607857    0.786428     0.002533
O         0.393571    0.572143    0.751286     0.002533
O         0.357857    0.607857    0.751286     0.002533
BA        0.429286    0.572143    0.716428     0.002533
TI        0.465000    0.607857    0.752857     0.002533
O         0.465000    0.607857    0.786428     0.002533
O         0.465000    0.572143    0.751286     0.002533
O         0.429286    0.607857    0.751286     0.002533
BA        0.500714    0.572143    0.716428     0.002533
TI        0.536429    0.607857    0.752857     0.002533
O         0.536429    0.607857    0.786428     0.002533
O         0.536429    0.572143    0.751286     0.002533
O         0.500714    0.607857    0.751286     0.002533
BA        0.572143    0.572143    0.716428     0.002533
TI        0.607857    0.607857    0.752857     0.002533
O         0.607857    0.607857    0.786428     0.002533
O         0.607857    0.572143    0.751286     0.002533
O         0.572143    0.607857    0.751286     0.002533
BA        0.643571    0.572143    0.716428     0.002533
O         0.679286    0.572143    0.751286     0.002533
O         0.643571    0.607857    0.751286     0.002533
BA        0.715000    0.572143    0.716428     0.002533
BA        0.215000    0.643571    0.716428     0.002533
O         0.250714    0.643571    0.751286     0.002533
BA        0.286429    0.643571    0.716428     0.002533
TI        0.322143    0.679286    0.752857     0.002533
O         0.322143    0.643571    0.751286     0.002533
O         0.286429    0.679286    0.751286     0.002533
BA        0.357857    0.643571    0.716428     0.002533
TI        0.393571    0.679286    0.752857     0.002533
O         0.393571    0.679286    0.786428     0.002533
O         0.393571    0.643571    0.751286     0.002533
O         0.357857    0.679286    0.751286     0.002533
BA        0.429286    0.643571    0.716428     0.002533
TI        0.465000    0.679286    0.752857     0.002533
O         0.465000    0.679286    0.786428     0.002533
O         0.465000    0.643571    0.751286     0.002533
O         0.429286    0.679286    0.751286     0.002533
BA        0.500714    0.643571    0.716428     0.002533
TI        0.536429    0.679286    0.752857     0.002533
O         0.536429    0.643571    0.751286     0.002533
O         0.500714    0.679286    0.751286     0.002533
BA        0.572143    0.643571    0.716428     0.002533
O         0.607857    0.643571    0.751286     0.002533
O         0.572143    0.679286    0.751286     0.002533
BA        0.643571    0.643571    0.716428     0.002533
BA        0.286429    0.715000    0.716428     0.002533
BA        0.357857    0.715000    0.716428     0.002533
O         0.393571    0.715000    0.751286     0.002533
BA        0.429286    0.715000    0.716428     0.002533
O         0.465000    0.715000    0.751286     0.002533
BA        0.500714    0.715000    0.716428     0.002533
BA        0.572143    0.715000    0.716428     0.002533
BA        0.286429    0.215000    0.787857     0.002533
BA        0.357857    0.215000    0.787857     0.002533
TI        0.393571    0.250714    0.824286     0.002533
O         0.357857    0.250714    0.822714     0.002533
BA        0.429286    0.215000    0.787857     0.002533
TI        0.465000    0.250714    0.824286     0.002533
O         0.429286    0.250714    0.822714     0.002533
BA        0.500714    0.215000    0.787857     0.002533
O         0.500714    0.250714    0.822714     0.002533
BA        0.572143    0.215000    0.787857     0.002533
BA        0.215000    0.286429    0.787857     0.002533
BA        0.286429    0.286429    0.787857     0.002533
TI        0.322143    0.322143    0.824286     0.002533
O         0.322143    0.286429    0.822714     0.002533
O         0.286429    0.322143    0.822714     0.002533
BA        0.357857    0.286429    0.787857     0.002533
TI        0.393571    0.322143    0.824286     0.002533
O         0.393571    0.286429    0.822714     0.002533
O         0.357857    0.322143    0.822714     0.002533
BA        0.429286    0.286429    0.787857     0.002533
TI        0.465000    0.322143    0.824286     0.002533
O         0.465000    0.286429    0.822714     0.002533
O         0.429286    0.322143    0.822714     0.002533
BA        0.500714    0.286429    0.787857     0.002533
TI        0.536429    0.322143    0.824286     0.002533
O         0.536429    0.286429    0.822714     0.002533
O         0.500714    0.322143    0.822714     0.002533
BA        0.572143    0.286429    0.787857     0.002533
O         0.572143    0.322143    0.822714     0.002533
BA        0.643571    0.286429    0.787857     0.002533
BA        0.215000    0.357857    0.787857     0.002533
TI        0.250714    0.393571    0.824286     0.002533
O         0.250714    0.357857    0.822714     0.002533
BA        0.286429    0.357857    0.787857     0.002533
TI        0.322143    0.393571    0.824286     0.002533
O         0.322143    0.357857    0.822714     0.002533
O         0.286429    0.393571    0.822714     0.002533
BA        0.357857    0.357857    0.787857     0.002533
TI        0.393571    0.393571    0.824286     0.002533
O         0.393571    0.393571    0.857857     0.002533
O         0.393571    0.357857    0.822714     0.002533
O         0.357857    0.393571    0.822714     0.002533
BA        0.429286    0.357857    0.787857     0.002533
TI        0.465000    0.393571    0.824286     0.002533
O         0.465000    0.393571    0.857857     0.002533
O         0.465000    0.357857    0.822714     0.002533
O         0.429286    0.393571    0.822714     0.002533
BA        0.500714    0.357857    0.787857     0.002533
TI        0.536429    0.393571    0.824286     0.002533
O         0.536429    0.357857    0.822714     0.002533
O         0.500714    0.393571    0.822714     0.002533
BA        0.572143    0.357857    0.787857     0.002533
TI        0.607857    0.393571    0.824286     0.002533
O         0.607857    0.357857    0.822714     0.002533
O         0.572143    0.393571    0.822714     0.002533
BA        0.643571    0.357857    0.787857     0.002533
BA        0.215000    0.429286    0.787857     0.002533
TI        0.250714    0.465000    0.824286     0.002533
O         0.250714    0.429286    0.822714     0.002533
BA        0.286429    0.429286    0.787857     0.002533
TI        0.322143    0.465000    0.824286     0.002533
O         0.322143    0.429286    0.822714     0.002533
O         0.286429    0.465000    0.822714     0.002533
BA        0.357857    0.429286    0.787857     0.002533
TI        0.393571    0.465000    0.824286     0.002533
O         0.393571    0.465000    0.857857     0.002533
O         0.393571    0.429286    0.822714     0.002533
O         0.357857    0.465000    0.822714     0.002533
BA        0.429286    0.429286    0.787857     0.002533
TI        0.465000    0.465000    0.824286     0.002533
O         0.465000    0.465000    0.857857     0.002533
O         0.465000    0.429286    0.822714     0.002533
O         0.429286    0.465000    0.822714     0.002533
BA        0.500714    0.429286    0.787857     0.002533
TI        0.536429    0.465000    0.824286     0.002533
O         0.536429    0.429286    0.822714     0.002533
O         0.500714    0.465000    0.822714     0.002533
BA        0.572143    0.429286    0.787857     0.002533
TI        0.607857    0.465000    0.824286     0.002533
O         0.607857    0.429286    0.822714     0.002533
O         0.572143    0.465000    0.822714     0.002533
BA        0.643571    0.429286    0.787857     0.002533
BA        0.215000    0.500714    0.787857     0.002533
O         0.250714    0.500714    0.822714     0.002533
BA        0.286429    0.500714    0.787857     0.002533
TI        0.322143    0.536429    0.824286     0.002533
O         0.322143    0.500714    0.822714     0.002533
O         0.286429    0.536429    0.822714     0.002533
BA        0.357857    0.500714    0.787857     0.002533
TI        0.393571    0.536429    0.824286     0.002533
O         0.393571    0.500714    0.822714     0.002533
O         0.357857    0.536429    0.822714     0.002533
BA        0.429286    0.500714    0.787857     0.002533
TI        0.465000    0.536429    0.824286     0.002533
O         0.465000    0.500714    0.822714     0.002533
O         0.429286    0.536429    0.822714     0.002533
BA        0.500714    0.500714    0.787857     0.002533
TI        0.536429    0.536429    0.824286     0.002533
O         0.536429    0.500714    0.822714     0.002533
O         0.500714    0.536429    0.822714     0.002533
BA        0.572143    0.500714    0.787857     0.002533
O         0.607857    0.500714    0.822714     0.002533
O         0.572143    0.536429    0.822714     0.002533
BA        0.643571    0.500714    0.787857     0.002533
BA        0.215000    0.572143    0.787857     0.002533
BA        0.286429    0.572143    0.787857     0.002533
O         0.322143    0.572143    0.822714     0.002533
BA        0.357857    0.572143    0.787857     0.002533
TI        0.393571    0.607857    0.824286     0.002533
O         0.393571    0.572143    0.822714     0.002533
O         0.357857    0.607857    0.822714     0.002533
BA        0.429286    0.572143    0.787857     0.002533
TI        0.465000    0.607857    0.824286     0.002533
O         0.465000    0.572143    0.822714     0.002533
O         0.429286    0.607857    0.822714     0.002533
BA        0.500714    0.572143    0.787857     0.002533
O         0.536429    0.572143    0.822714     0.002533
O         0.500714    0.607857    0.822714     0.002533
BA        0.572143    0.572143    0.787857     0.002533
BA        0.643571    0.572143    0.787857     0.002533
BA        0.286429    0.643571    0.787857     0.002533
BA        0.357857    0.643571    0.787857     0.002533
BA        0.429286    0.643571    0.787857     0.002533
BA        0.500714    0.643571    0.787857     0.002533
BA        0.572143    0.643571    0.787857     0.002533
BA        0.357857    0.357857    0.859286     0.002533
BA        0.429286    0.357857    0.859286     0.002533
BA        0.500714    0.357857    0.859286     0.002533
BA        0.357857    0.429286    0.859286     0.002533
BA        0.429286    0.429286    0.859286     0.002533
BA        0.500714    0.429286    0.859286     0.002533
BA        0.357857    0.500714    0.859286     0.002533
BA        0.429286    0.500714    0.859286     0.002533
BA        0.500714    0.500714    0.859286     0.002533
