data_00001
_audit_creation_method   'DISCUS'

_data_chemical_name_common 'Platinum (Fm3m)'

_cell_length_a             35.2800
_cell_length_b             31.3600
_cell_length_c             31.3600
_cell_angle_alpha     90.0000
_cell_angle_beta      90.0000
_cell_angle_gamma     90.0000

_symmetry_space_group_name_H-M   'P1              '

loop_
_atom_site_label
_atom_site_fract_x
_atom_site_fract_y
_atom_site_fract_z
_atom_site_u_iso_or_equiv
PT        0.390000    0.251250    0.001250     0.001267
PT        0.278889    0.376250    0.001250     0.001267
PT        0.334444    0.313750    0.001250     0.001267
PT        0.390000    0.376250    0.001250     0.001267
PT        0.445556    0.313750    0.001250     0.001267
PT        0.501111    0.376250    0.001250     0.001267
PT        0.223333    0.438750    0.001250     0.001267
PT        0.278889    0.501250    0.001250     0.001267
PT        0.334444    0.438750    0.001250     0.001267
PT        0.390000    0.501250    0.001250     0.001267
PT        0.445556    0.438750    0.001250     0.001267
PT        0.501111    0.501250    0.001250     0.001267
PT        0.556667    0.438750    0.001250     0.001267
PT        0.334444    0.563750    0.001250     0.001267
PT        0.390000    0.626250    0.001250     0.001267
PT        0.445556    0.563750    0.001250     0.001267
PT        0.278889    0.126250    0.126250     0.001267
PT        0.390000    0.126250    0.126250     0.001267
PT        0.501111    0.126250    0.126250     0.001267
PT        0.167778    0.251250    0.126250     0.001267
PT        0.223333    0.188750    0.126250     0.001267
PT        0.223333    0.251250    0.063750     0.001267
PT        0.278889    0.188750    0.063750     0.001267
PT        0.278889    0.251250    0.126250     0.001267
PT        0.334444    0.188750    0.126250     0.001267
PT        0.334444    0.251250    0.063750     0.001267
PT        0.390000    0.188750    0.063750     0.001267
PT        0.390000    0.251250    0.126250     0.001267
PT        0.445556    0.188750    0.126250     0.001267
PT        0.445556    0.251250    0.063750     0.001267
PT        0.501111    0.188750    0.063750     0.001267
PT        0.501111    0.251250    0.126250     0.001267
PT        0.556667    0.188750    0.126250     0.001267
PT        0.556667    0.251250    0.063750     0.001267
PT        0.612222    0.251250    0.126250     0.001267
PT        0.112222    0.313750    0.126250     0.001267
PT        0.167778    0.313750    0.063750     0.001267
PT        0.167778    0.376250    0.126250     0.001267
PT        0.223333    0.313750    0.126250     0.001267
PT        0.223333    0.376250    0.063750     0.001267
PT        0.278889    0.313750    0.063750     0.001267
PT        0.278889    0.376250    0.126250     0.001267
PT        0.334444    0.313750    0.126250     0.001267
PT        0.334444    0.376250    0.063750     0.001267
PT        0.390000    0.313750    0.063750     0.001267
PT        0.390000    0.376250    0.126250     0.001267
PT        0.445556    0.313750    0.126250     0.001267
PT        0.445556    0.376250    0.063750     0.001267
PT        0.501111    0.313750    0.063750     0.001267
PT        0.501111    0.376250    0.126250     0.001267
PT        0.556667    0.313750    0.126250     0.001267
PT        0.556667    0.376250    0.063750     0.001267
PT        0.612222    0.313750    0.063750     0.001267
PT        0.612222    0.376250    0.126250     0.001267
PT        0.667778    0.313750    0.126250     0.001267
PT        0.112222    0.438750    0.126250     0.001267
PT        0.167778    0.438750    0.063750     0.001267
PT        0.167778    0.501250    0.126250     0.001267
PT        0.223333    0.438750    0.126250     0.001267
PT        0.223333    0.501250    0.063750     0.001267
PT        0.278889    0.438750    0.063750     0.001267
PT        0.278889    0.501250    0.126250     0.001267
PT        0.334444    0.438750    0.126250     0.001267
PT        0.334444    0.501250    0.063750     0.001267
PT        0.390000    0.438750    0.063750     0.001267
PT        0.390000    0.501250    0.126250     0.001267
PT        0.445556    0.438750    0.126250     0.001267
PT        0.445556    0.501250    0.063750     0.001267
PT        0.501111    0.438750    0.063750     0.001267
PT        0.501111    0.501250    0.126250     0.001267
PT        0.556667    0.438750    0.126250     0.001267
PT        0.556667    0.501250    0.063750     0.001267
PT        0.612222    0.438750    0.063750     0.001267
PT        0.612222    0.501250    0.126250     0.001267
PT        0.667778    0.438750    0.126250     0.001267
PT        0.112222    0.563750    0.126250     0.001267
PT        0.167778    0.563750    0.063750     0.001267
PT        0.167778    0.626250    0.126250     0.001267
PT        0.223333    0.563750    0.126250     0.001267
PT        0.223333    0.626250    0.063750     0.001267
PT        0.278889    0.563750    0.063750     0.001267
PT        0.278889    0.626250    0.126250     0.001267
PT        0.334444    0.563750    0.126250     0.001267
PT        0.334444    0.626250    0.063750     0.001267
PT        0.390000    0.563750    0.063750     0.001267
PT        0.390000    0.626250    0.126250     0.001267
PT        0.445556    0.563750    0.126250     0.001267
PT        0.445556    0.626250    0.063750     0.001267
PT        0.501111    0.563750    0.063750     0.001267
PT        0.501111    0.626250    0.126250     0.001267
PT        0.556667    0.563750    0.126250     0.001267
PT        0.556667    0.626250    0.063750     0.001267
PT        0.612222    0.563750    0.063750     0.001267
PT        0.612222    0.626250    0.126250     0.001267
PT        0.667778    0.563750    0.126250     0.001267
PT        0.223333    0.688750    0.126250     0.001267
PT        0.278889    0.688750    0.063750     0.001267
PT        0.278889    0.751250    0.126250     0.001267
PT        0.334444    0.688750    0.126250     0.001267
PT        0.390000    0.688750    0.063750     0.001267
PT        0.390000    0.751250    0.126250     0.001267
PT        0.445556    0.688750    0.126250     0.001267
PT        0.501111    0.688750    0.063750     0.001267
PT        0.501111    0.751250    0.126250     0.001267
PT        0.556667    0.688750    0.126250     0.001267
PT        0.390000    0.001250    0.251250     0.001267
PT        0.167778    0.126250    0.251250     0.001267
PT        0.223333    0.063750    0.251250     0.001267
PT        0.223333    0.126250    0.188750     0.001267
PT        0.278889    0.063750    0.188750     0.001267
PT        0.278889    0.126250    0.251250     0.001267
PT        0.334444    0.063750    0.251250     0.001267
PT        0.334444    0.126250    0.188750     0.001267
PT        0.390000    0.063750    0.188750     0.001267
PT        0.390000    0.126250    0.251250     0.001267
PT        0.445556    0.063750    0.251250     0.001267
PT        0.445556    0.126250    0.188750     0.001267
PT        0.501111    0.063750    0.188750     0.001267
PT        0.501111    0.126250    0.251250     0.001267
PT        0.556667    0.063750    0.251250     0.001267
PT        0.556667    0.126250    0.188750     0.001267
PT        0.612222    0.126250    0.251250     0.001267
PT        0.056667    0.251250    0.251250     0.001267
PT        0.112222    0.188750    0.251250     0.001267
PT        0.112222    0.251250    0.188750     0.001267
PT        0.167778    0.188750    0.188750     0.001267
PT        0.167778    0.251250    0.251250     0.001267
PT        0.223333    0.188750    0.251250     0.001267
PT        0.223333    0.251250    0.188750     0.001267
PT        0.278889    0.188750    0.188750     0.001267
PT        0.278889    0.251250    0.251250     0.001267
PT        0.334444    0.188750    0.251250     0.001267
PT        0.334444    0.251250    0.188750     0.001267
PT        0.390000    0.188750    0.188750     0.001267
PT        0.390000    0.251250    0.251250     0.001267
PT        0.445556    0.188750    0.251250     0.001267
PT        0.445556    0.251250    0.188750     0.001267
PT        0.501111    0.188750    0.188750     0.001267
PT        0.501111    0.251250    0.251250     0.001267
PT        0.556667    0.188750    0.251250     0.001267
PT        0.556667    0.251250    0.188750     0.001267
PT        0.612222    0.188750    0.188750     0.001267
PT        0.612222    0.251250    0.251250     0.001267
PT        0.667778    0.188750    0.251250     0.001267
PT        0.667778    0.251250    0.188750     0.001267
PT        0.723333    0.251250    0.251250     0.001267
PT        0.056667    0.313750    0.188750     0.001267
PT        0.056667    0.376250    0.251250     0.001267
PT        0.112222    0.313750    0.251250     0.001267
PT        0.112222    0.376250    0.188750     0.001267
PT        0.167778    0.313750    0.188750     0.001267
PT        0.167778    0.376250    0.251250     0.001267
PT        0.223333    0.313750    0.251250     0.001267
PT        0.223333    0.376250    0.188750     0.001267
PT        0.278889    0.313750    0.188750     0.001267
PT        0.278889    0.376250    0.251250     0.001267
PT        0.334444    0.313750    0.251250     0.001267
PT        0.334444    0.376250    0.188750     0.001267
PT        0.390000    0.313750    0.188750     0.001267
PT        0.390000    0.376250    0.251250     0.001267
PT        0.445556    0.313750    0.251250     0.001267
PT        0.445556    0.376250    0.188750     0.001267
PT        0.501111    0.313750    0.188750     0.001267
PT        0.501111    0.376250    0.251250     0.001267
PT        0.556667    0.313750    0.251250     0.001267
PT        0.556667    0.376250    0.188750     0.001267
PT        0.612222    0.313750    0.188750     0.001267
PT        0.612222    0.376250    0.251250     0.001267
PT        0.667778    0.313750    0.251250     0.001267
PT        0.667778    0.376250    0.188750     0.001267
PT        0.723333    0.313750    0.188750     0.001267
PT        0.723333    0.376250    0.251250     0.001267
PT        0.001111    0.438750    0.251250     0.001267
PT        0.056667    0.438750    0.188750     0.001267
PT        0.056667    0.501250    0.251250     0.001267
PT        0.112222    0.438750    0.251250     0.001267
PT        0.112222    0.501250    0.188750     0.001267
PT        0.167778    0.438750    0.188750     0.001267
PT        0.167778    0.501250    0.251250     0.001267
PT        0.223333    0.438750    0.251250     0.001267
PT        0.223333    0.501250    0.188750     0.001267
PT        0.278889    0.438750    0.188750     0.001267
PT        0.278889    0.501250    0.251250     0.001267
PT        0.334444    0.438750    0.251250     0.001267
PT        0.334444    0.501250    0.188750     0.001267
PT        0.390000    0.438750    0.188750     0.001267
PT        0.390000    0.501250    0.251250     0.001267
PT        0.445556    0.438750    0.251250     0.001267
PT        0.445556    0.501250    0.188750     0.001267
PT        0.501111    0.438750    0.188750     0.001267
PT        0.501111    0.501250    0.251250     0.001267
PT        0.556667    0.438750    0.251250     0.001267
PT        0.556667    0.501250    0.188750     0.001267
PT        0.612222    0.438750    0.188750     0.001267
PT        0.612222    0.501250    0.251250     0.001267
PT        0.667778    0.438750    0.251250     0.001267
PT        0.667778    0.501250    0.188750     0.001267
PT        0.723333    0.438750    0.188750     0.001267
PT        0.723333    0.501250    0.251250     0.001267
PT        0.778889    0.438750    0.251250     0.001267
PT        0.056667    0.563750    0.188750     0.001267
PT        0.056667    0.626250    0.251250     0.001267
PT        0.112222    0.563750    0.251250     0.001267
PT        0.112222    0.626250    0.188750     0.001267
PT        0.167778    0.563750    0.188750     0.001267
PT        0.167778    0.626250    0.251250     0.001267
PT        0.223333    0.563750    0.251250     0.001267
PT        0.223333    0.626250    0.188750     0.001267
PT        0.278889    0.563750    0.188750     0.001267
PT        0.278889    0.626250    0.251250     0.001267
PT        0.334444    0.563750    0.251250     0.001267
PT        0.334444    0.626250    0.188750     0.001267
PT        0.390000    0.563750    0.188750     0.001267
PT        0.390000    0.626250    0.251250     0.001267
PT        0.445556    0.563750    0.251250     0.001267
PT        0.445556    0.626250    0.188750     0.001267
PT        0.501111    0.563750    0.188750     0.001267
PT        0.501111    0.626250    0.251250     0.001267
PT        0.556667    0.563750    0.251250     0.001267
PT        0.556667    0.626250    0.188750     0.001267
PT        0.612222    0.563750    0.188750     0.001267
PT        0.612222    0.626250    0.251250     0.001267
PT        0.667778    0.563750    0.251250     0.001267
PT        0.667778    0.626250    0.188750     0.001267
PT        0.723333    0.563750    0.188750     0.001267
PT        0.723333    0.626250    0.251250     0.001267
PT        0.112222    0.688750    0.251250     0.001267
PT        0.167778    0.688750    0.188750     0.001267
PT        0.167778    0.751250    0.251250     0.001267
PT        0.223333    0.688750    0.251250     0.001267
PT        0.223333    0.751250    0.188750     0.001267
PT        0.278889    0.688750    0.188750     0.001267
PT        0.278889    0.751250    0.251250     0.001267
PT        0.334444    0.688750    0.251250     0.001267
PT        0.334444    0.751250    0.188750     0.001267
PT        0.390000    0.688750    0.188750     0.001267
PT        0.390000    0.751250    0.251250     0.001267
PT        0.445556    0.688750    0.251250     0.001267
PT        0.445556    0.751250    0.188750     0.001267
PT        0.501111    0.688750    0.188750     0.001267
PT        0.501111    0.751250    0.251250     0.001267
PT        0.556667    0.688750    0.251250     0.001267
PT        0.556667    0.751250    0.188750     0.001267
PT        0.612222    0.688750    0.188750     0.001267
PT        0.612222    0.751250    0.251250     0.001267
PT        0.667778    0.688750    0.251250     0.001267
PT        0.223333    0.813750    0.251250     0.001267
PT        0.278889    0.813750    0.188750     0.001267
PT        0.334444    0.813750    0.251250     0.001267
PT        0.390000    0.813750    0.188750     0.001267
PT        0.390000    0.876250    0.251250     0.001267
PT        0.445556    0.813750    0.251250     0.001267
PT        0.501111    0.813750    0.188750     0.001267
PT        0.556667    0.813750    0.251250     0.001267
PT        0.278889    0.001250    0.376250     0.001267
PT        0.334444    0.001250    0.313750     0.001267
PT        0.390000    0.001250    0.376250     0.001267
PT        0.445556    0.001250    0.313750     0.001267
PT        0.501111    0.001250    0.376250     0.001267
PT        0.112222    0.126250    0.313750     0.001267
PT        0.167778    0.063750    0.313750     0.001267
PT        0.167778    0.126250    0.376250     0.001267
PT        0.223333    0.063750    0.376250     0.001267
PT        0.223333    0.126250    0.313750     0.001267
PT        0.278889    0.063750    0.313750     0.001267
PT        0.278889    0.126250    0.376250     0.001267
PT        0.334444    0.063750    0.376250     0.001267
PT        0.334444    0.126250    0.313750     0.001267
PT        0.390000    0.063750    0.313750     0.001267
PT        0.390000    0.126250    0.376250     0.001267
PT        0.445556    0.063750    0.376250     0.001267
PT        0.445556    0.126250    0.313750     0.001267
PT        0.501111    0.063750    0.313750     0.001267
PT        0.501111    0.126250    0.376250     0.001267
PT        0.556667    0.063750    0.376250     0.001267
PT        0.556667    0.126250    0.313750     0.001267
PT        0.612222    0.063750    0.313750     0.001267
PT        0.612222    0.126250    0.376250     0.001267
PT        0.667778    0.126250    0.313750     0.001267
PT        0.056667    0.188750    0.313750     0.001267
PT        0.056667    0.251250    0.376250     0.001267
PT        0.112222    0.188750    0.376250     0.001267
PT        0.112222    0.251250    0.313750     0.001267
PT        0.167778    0.188750    0.313750     0.001267
PT        0.167778    0.251250    0.376250     0.001267
PT        0.223333    0.188750    0.376250     0.001267
PT        0.223333    0.251250    0.313750     0.001267
PT        0.278889    0.188750    0.313750     0.001267
PT        0.278889    0.251250    0.376250     0.001267
PT        0.334444    0.188750    0.376250     0.001267
PT        0.334444    0.251250    0.313750     0.001267
PT        0.390000    0.188750    0.313750     0.001267
PT        0.390000    0.251250    0.376250     0.001267
PT        0.445556    0.188750    0.376250     0.001267
PT        0.445556    0.251250    0.313750     0.001267
PT        0.501111    0.188750    0.313750     0.001267
PT        0.501111    0.251250    0.376250     0.001267
PT        0.556667    0.188750    0.376250     0.001267
PT        0.556667    0.251250    0.313750     0.001267
PT        0.612222    0.188750    0.313750     0.001267
PT        0.612222    0.251250    0.376250     0.001267
PT        0.667778    0.188750    0.376250     0.001267
PT        0.667778    0.251250    0.313750     0.001267
PT        0.723333    0.188750    0.313750     0.001267
PT        0.723333    0.251250    0.376250     0.001267
PT        0.001111    0.313750    0.376250     0.001267
PT        0.001111    0.376250    0.313750     0.001267
PT        0.056667    0.313750    0.313750     0.001267
PT        0.056667    0.376250    0.376250     0.001267
PT        0.112222    0.313750    0.376250     0.001267
PT        0.112222    0.376250    0.313750     0.001267
PT        0.167778    0.313750    0.313750     0.001267
PT        0.167778    0.376250    0.376250     0.001267
PT        0.223333    0.313750    0.376250     0.001267
PT        0.223333    0.376250    0.313750     0.001267
PT        0.278889    0.313750    0.313750     0.001267
PT        0.278889    0.376250    0.376250     0.001267
PT        0.334444    0.313750    0.376250     0.001267
PT        0.334444    0.376250    0.313750     0.001267
PT        0.390000    0.313750    0.313750     0.001267
PT        0.390000    0.376250    0.376250     0.001267
PT        0.445556    0.313750    0.376250     0.001267
PT        0.445556    0.376250    0.313750     0.001267
PT        0.501111    0.313750    0.313750     0.001267
PT        0.501111    0.376250    0.376250     0.001267
PT        0.556667    0.313750    0.376250     0.001267
PT        0.556667    0.376250    0.313750     0.001267
PT        0.612222    0.313750    0.313750     0.001267
PT        0.612222    0.376250    0.376250     0.001267
PT        0.667778    0.313750    0.376250     0.001267
PT        0.667778    0.376250    0.313750     0.001267
PT        0.723333    0.313750    0.313750     0.001267
PT        0.723333    0.376250    0.376250     0.001267
PT        0.778889    0.313750    0.376250     0.001267
PT        0.778889    0.376250    0.313750     0.001267
PT        0.001111    0.438750    0.376250     0.001267
PT        0.001111    0.501250    0.313750     0.001267
PT        0.056667    0.438750    0.313750     0.001267
PT        0.056667    0.501250    0.376250     0.001267
PT        0.112222    0.438750    0.376250     0.001267
PT        0.112222    0.501250    0.313750     0.001267
PT        0.167778    0.438750    0.313750     0.001267
PT        0.167778    0.501250    0.376250     0.001267
PT        0.223333    0.438750    0.376250     0.001267
PT        0.223333    0.501250    0.313750     0.001267
PT        0.278889    0.438750    0.313750     0.001267
PT        0.278889    0.501250    0.376250     0.001267
PT        0.334444    0.438750    0.376250     0.001267
PT        0.334444    0.501250    0.313750     0.001267
PT        0.390000    0.438750    0.313750     0.001267
PT        0.390000    0.501250    0.376250     0.001267
PT        0.445556    0.438750    0.376250     0.001267
PT        0.445556    0.501250    0.313750     0.001267
PT        0.501111    0.438750    0.313750     0.001267
PT        0.501111    0.501250    0.376250     0.001267
PT        0.556667    0.438750    0.376250     0.001267
PT        0.556667    0.501250    0.313750     0.001267
PT        0.612222    0.438750    0.313750     0.001267
PT        0.612222    0.501250    0.376250     0.001267
PT        0.667778    0.438750    0.376250     0.001267
PT        0.667778    0.501250    0.313750     0.001267
PT        0.723333    0.438750    0.313750     0.001267
PT        0.723333    0.501250    0.376250     0.001267
PT        0.778889    0.438750    0.376250     0.001267
PT        0.778889    0.501250    0.313750     0.001267
PT        0.001111    0.563750    0.376250     0.001267
PT        0.056667    0.563750    0.313750     0.001267
PT        0.056667    0.626250    0.376250     0.001267
PT        0.112222    0.563750    0.376250     0.001267
PT        0.112222    0.626250    0.313750     0.001267
PT        0.167778    0.563750    0.313750     0.001267
PT        0.167778    0.626250    0.376250     0.001267
PT        0.223333    0.563750    0.376250     0.001267
PT        0.223333    0.626250    0.313750     0.001267
PT        0.278889    0.563750    0.313750     0.001267
PT        0.278889    0.626250    0.376250     0.001267
PT        0.334444    0.563750    0.376250     0.001267
PT        0.334444    0.626250    0.313750     0.001267
PT        0.390000    0.563750    0.313750     0.001267
PT        0.390000    0.626250    0.376250     0.001267
PT        0.445556    0.563750    0.376250     0.001267
PT        0.445556    0.626250    0.313750     0.001267
PT        0.501111    0.563750    0.313750     0.001267
PT        0.501111    0.626250    0.376250     0.001267
PT        0.556667    0.563750    0.376250     0.001267
PT        0.556667    0.626250    0.313750     0.001267
PT        0.612222    0.563750    0.313750     0.001267
PT        0.612222    0.626250    0.376250     0.001267
PT        0.667778    0.563750    0.376250     0.001267
PT        0.667778    0.626250    0.313750     0.001267
PT        0.723333    0.563750    0.313750     0.001267
PT        0.723333    0.626250    0.376250     0.001267
PT        0.778889    0.563750    0.376250     0.001267
PT        0.056667    0.688750    0.313750     0.001267
PT        0.112222    0.688750    0.376250     0.001267
PT        0.112222    0.751250    0.313750     0.001267
PT        0.167778    0.688750    0.313750     0.001267
PT        0.167778    0.751250    0.376250     0.001267
PT        0.223333    0.688750    0.376250     0.001267
PT        0.223333    0.751250    0.313750     0.001267
PT        0.278889    0.688750    0.313750     0.001267
PT        0.278889    0.751250    0.376250     0.001267
PT        0.334444    0.688750    0.376250     0.001267
PT        0.334444    0.751250    0.313750     0.001267
PT        0.390000    0.688750    0.313750     0.001267
PT        0.390000    0.751250    0.376250     0.001267
PT        0.445556    0.688750    0.376250     0.001267
PT        0.445556    0.751250    0.313750     0.001267
PT        0.501111    0.688750    0.313750     0.001267
PT        0.501111    0.751250    0.376250     0.001267
PT        0.556667    0.688750    0.376250     0.001267
PT        0.556667    0.751250    0.313750     0.001267
PT        0.612222    0.688750    0.313750     0.001267
PT        0.612222    0.751250    0.376250     0.001267
PT        0.667778    0.688750    0.376250     0.001267
PT        0.667778    0.751250    0.313750     0.001267
PT        0.723333    0.688750    0.313750     0.001267
PT        0.167778    0.813750    0.313750     0.001267
PT        0.223333    0.813750    0.376250     0.001267
PT        0.278889    0.813750    0.313750     0.001267
PT        0.278889    0.876250    0.376250     0.001267
PT        0.334444    0.813750    0.376250     0.001267
PT        0.334444    0.876250    0.313750     0.001267
PT        0.390000    0.813750    0.313750     0.001267
PT        0.390000    0.876250    0.376250     0.001267
PT        0.445556    0.813750    0.376250     0.001267
PT        0.445556    0.876250    0.313750     0.001267
PT        0.501111    0.813750    0.313750     0.001267
PT        0.501111    0.876250    0.376250     0.001267
PT        0.556667    0.813750    0.376250     0.001267
PT        0.612222    0.813750    0.313750     0.001267
PT        0.223333    0.001250    0.438750     0.001267
PT        0.278889    0.001250    0.501250     0.001267
PT        0.334444    0.001250    0.438750     0.001267
PT        0.390000    0.001250    0.501250     0.001267
PT        0.445556    0.001250    0.438750     0.001267
PT        0.501111    0.001250    0.501250     0.001267
PT        0.556667    0.001250    0.438750     0.001267
PT        0.112222    0.126250    0.438750     0.001267
PT        0.167778    0.063750    0.438750     0.001267
PT        0.167778    0.126250    0.501250     0.001267
PT        0.223333    0.063750    0.501250     0.001267
PT        0.223333    0.126250    0.438750     0.001267
PT        0.278889    0.063750    0.438750     0.001267
PT        0.278889    0.126250    0.501250     0.001267
PT        0.334444    0.063750    0.501250     0.001267
PT        0.334444    0.126250    0.438750     0.001267
PT        0.390000    0.063750    0.438750     0.001267
PT        0.390000    0.126250    0.501250     0.001267
PT        0.445556    0.063750    0.501250     0.001267
PT        0.445556    0.126250    0.438750     0.001267
PT        0.501111    0.063750    0.438750     0.001267
PT        0.501111    0.126250    0.501250     0.001267
PT        0.556667    0.063750    0.501250     0.001267
PT        0.556667    0.126250    0.438750     0.001267
PT        0.612222    0.063750    0.438750     0.001267
PT        0.612222    0.126250    0.501250     0.001267
PT        0.667778    0.126250    0.438750     0.001267
PT        0.001111    0.251250    0.438750     0.001267
PT        0.056667    0.188750    0.438750     0.001267
PT        0.056667    0.251250    0.501250     0.001267
PT        0.112222    0.188750    0.501250     0.001267
PT        0.112222    0.251250    0.438750     0.001267
PT        0.167778    0.188750    0.438750     0.001267
PT        0.167778    0.251250    0.501250     0.001267
PT        0.223333    0.188750    0.501250     0.001267
PT        0.223333    0.251250    0.438750     0.001267
PT        0.278889    0.188750    0.438750     0.001267
PT        0.278889    0.251250    0.501250     0.001267
PT        0.334444    0.188750    0.501250     0.001267
PT        0.334444    0.251250    0.438750     0.001267
PT        0.390000    0.188750    0.438750     0.001267
PT        0.390000    0.251250    0.501250     0.001267
PT        0.445556    0.188750    0.501250     0.001267
PT        0.445556    0.251250    0.438750     0.001267
PT        0.501111    0.188750    0.438750     0.001267
PT        0.501111    0.251250    0.501250     0.001267
PT        0.556667    0.188750    0.501250     0.001267
PT        0.556667    0.251250    0.438750     0.001267
PT        0.612222    0.188750    0.438750     0.001267
PT        0.612222    0.251250    0.501250     0.001267
PT        0.667778    0.188750    0.501250     0.001267
PT        0.667778    0.251250    0.438750     0.001267
PT        0.723333    0.188750    0.438750     0.001267
PT        0.723333    0.251250    0.501250     0.001267
PT        0.778889    0.251250    0.438750     0.001267
PT        0.001111    0.313750    0.501250     0.001267
PT        0.001111    0.376250    0.438750     0.001267
PT        0.056667    0.313750    0.438750     0.001267
PT        0.056667    0.376250    0.501250     0.001267
PT        0.112222    0.313750    0.501250     0.001267
PT        0.112222    0.376250    0.438750     0.001267
PT        0.167778    0.313750    0.438750     0.001267
PT        0.167778    0.376250    0.501250     0.001267
PT        0.223333    0.313750    0.501250     0.001267
PT        0.223333    0.376250    0.438750     0.001267
PT        0.278889    0.313750    0.438750     0.001267
PT        0.278889    0.376250    0.501250     0.001267
PT        0.334444    0.313750    0.501250     0.001267
PT        0.334444    0.376250    0.438750     0.001267
PT        0.390000    0.313750    0.438750     0.001267
PT        0.390000    0.376250    0.501250     0.001267
PT        0.445556    0.313750    0.501250     0.001267
PT        0.445556    0.376250    0.438750     0.001267
PT        0.501111    0.313750    0.438750     0.001267
PT        0.501111    0.376250    0.501250     0.001267
PT        0.556667    0.313750    0.501250     0.001267
PT        0.556667    0.376250    0.438750     0.001267
PT        0.612222    0.313750    0.438750     0.001267
PT        0.612222    0.376250    0.501250     0.001267
PT        0.667778    0.313750    0.501250     0.001267
PT        0.667778    0.376250    0.438750     0.001267
PT        0.723333    0.313750    0.438750     0.001267
PT        0.723333    0.376250    0.501250     0.001267
PT        0.778889    0.313750    0.501250     0.001267
PT        0.778889    0.376250    0.438750     0.001267
PT        0.001111    0.438750    0.501250     0.001267
PT        0.001111    0.501250    0.438750     0.001267
PT        0.056667    0.438750    0.438750     0.001267
PT        0.056667    0.501250    0.501250     0.001267
PT        0.112222    0.438750    0.501250     0.001267
PT        0.112222    0.501250    0.438750     0.001267
PT        0.167778    0.438750    0.438750     0.001267
PT        0.167778    0.501250    0.501250     0.001267
PT        0.223333    0.438750    0.501250     0.001267
PT        0.223333    0.501250    0.438750     0.001267
PT        0.278889    0.438750    0.438750     0.001267
PT        0.278889    0.501250    0.501250     0.001267
PT        0.334444    0.438750    0.501250     0.001267
PT        0.334444    0.501250    0.438750     0.001267
PT        0.390000    0.438750    0.438750     0.001267
PT        0.390000    0.501250    0.501250     0.001267
PT        0.445556    0.438750    0.501250     0.001267
PT        0.445556    0.501250    0.438750     0.001267
PT        0.501111    0.438750    0.438750     0.001267
PT        0.501111    0.501250    0.501250     0.001267
PT        0.556667    0.438750    0.501250     0.001267
PT        0.556667    0.501250    0.438750     0.001267
PT        0.612222    0.438750    0.438750     0.001267
PT        0.612222    0.501250    0.501250     0.001267
PT        0.667778    0.438750    0.501250     0.001267
PT        0.667778    0.501250    0.438750     0.001267
PT        0.723333    0.438750    0.438750     0.001267
PT        0.723333    0.501250    0.501250     0.001267
PT        0.778889    0.438750    0.501250     0.001267
PT        0.778889    0.501250    0.438750     0.001267
PT        0.001111    0.563750    0.501250     0.001267
PT        0.001111    0.626250    0.438750     0.001267
PT        0.056667    0.563750    0.438750     0.001267
PT        0.056667    0.626250    0.501250     0.001267
PT        0.112222    0.563750    0.501250     0.001267
PT        0.112222    0.626250    0.438750     0.001267
PT        0.167778    0.563750    0.438750     0.001267
PT        0.167778    0.626250    0.501250     0.001267
PT        0.223333    0.563750    0.501250     0.001267
PT        0.223333    0.626250    0.438750     0.001267
PT        0.278889    0.563750    0.438750     0.001267
PT        0.278889    0.626250    0.501250     0.001267
PT        0.334444    0.563750    0.501250     0.001267
PT        0.334444    0.626250    0.438750     0.001267
PT        0.390000    0.563750    0.438750     0.001267
PT        0.390000    0.626250    0.501250     0.001267
PT        0.445556    0.563750    0.501250     0.001267
PT        0.445556    0.626250    0.438750     0.001267
PT        0.501111    0.563750    0.438750     0.001267
PT        0.501111    0.626250    0.501250     0.001267
PT        0.556667    0.563750    0.501250     0.001267
PT        0.556667    0.626250    0.438750     0.001267
PT        0.612222    0.563750    0.438750     0.001267
PT        0.612222    0.626250    0.501250     0.001267
PT        0.667778    0.563750    0.501250     0.001267
PT        0.667778    0.626250    0.438750     0.001267
PT        0.723333    0.563750    0.438750     0.001267
PT        0.723333    0.626250    0.501250     0.001267
PT        0.778889    0.563750    0.501250     0.001267
PT        0.778889    0.626250    0.438750     0.001267
PT        0.056667    0.688750    0.438750     0.001267
PT        0.112222    0.688750    0.501250     0.001267
PT        0.112222    0.751250    0.438750     0.001267
PT        0.167778    0.688750    0.438750     0.001267
PT        0.167778    0.751250    0.501250     0.001267
PT        0.223333    0.688750    0.501250     0.001267
PT        0.223333    0.751250    0.438750     0.001267
PT        0.278889    0.688750    0.438750     0.001267
PT        0.278889    0.751250    0.501250     0.001267
PT        0.334444    0.688750    0.501250     0.001267
PT        0.334444    0.751250    0.438750     0.001267
PT        0.390000    0.688750    0.438750     0.001267
PT        0.390000    0.751250    0.501250     0.001267
PT        0.445556    0.688750    0.501250     0.001267
PT        0.445556    0.751250    0.438750     0.001267
PT        0.501111    0.688750    0.438750     0.001267
PT        0.501111    0.751250    0.501250     0.001267
PT        0.556667    0.688750    0.501250     0.001267
PT        0.556667    0.751250    0.438750     0.001267
PT        0.612222    0.688750    0.438750     0.001267
PT        0.612222    0.751250    0.501250     0.001267
PT        0.667778    0.688750    0.501250     0.001267
PT        0.667778    0.751250    0.438750     0.001267
PT        0.723333    0.688750    0.438750     0.001267
PT        0.167778    0.813750    0.438750     0.001267
PT        0.223333    0.813750    0.501250     0.001267
PT        0.223333    0.876250    0.438750     0.001267
PT        0.278889    0.813750    0.438750     0.001267
PT        0.278889    0.876250    0.501250     0.001267
PT        0.334444    0.813750    0.501250     0.001267
PT        0.334444    0.876250    0.438750     0.001267
PT        0.390000    0.813750    0.438750     0.001267
PT        0.390000    0.876250    0.501250     0.001267
PT        0.445556    0.813750    0.501250     0.001267
PT        0.445556    0.876250    0.438750     0.001267
PT        0.501111    0.813750    0.438750     0.001267
PT        0.501111    0.876250    0.501250     0.001267
PT        0.556667    0.813750    0.501250     0.001267
PT        0.556667    0.876250    0.438750     0.001267
PT        0.612222    0.813750    0.438750     0.001267
PT        0.334444    0.001250    0.563750     0.001267
PT        0.390000    0.001250    0.626250     0.001267
PT        0.445556    0.001250    0.563750     0.001267
PT        0.112222    0.126250    0.563750     0.001267
PT        0.167778    0.063750    0.563750     0.001267
PT        0.167778    0.126250    0.626250     0.001267
PT        0.223333    0.063750    0.626250     0.001267
PT        0.223333    0.126250    0.563750     0.001267
PT        0.278889    0.063750    0.563750     0.001267
PT        0.278889    0.126250    0.626250     0.001267
PT        0.334444    0.063750    0.626250     0.001267
PT        0.334444    0.126250    0.563750     0.001267
PT        0.390000    0.063750    0.563750     0.001267
PT        0.390000    0.126250    0.626250     0.001267
PT        0.445556    0.063750    0.626250     0.001267
PT        0.445556    0.126250    0.563750     0.001267
PT        0.501111    0.063750    0.563750     0.001267
PT        0.501111    0.126250    0.626250     0.001267
PT        0.556667    0.063750    0.626250     0.001267
PT        0.556667    0.126250    0.563750     0.001267
PT        0.612222    0.063750    0.563750     0.001267
PT        0.612222    0.126250    0.626250     0.001267
PT        0.667778    0.126250    0.563750     0.001267
PT        0.056667    0.188750    0.563750     0.001267
PT        0.056667    0.251250    0.626250     0.001267
PT        0.112222    0.188750    0.626250     0.001267
PT        0.112222    0.251250    0.563750     0.001267
PT        0.167778    0.188750    0.563750     0.001267
PT        0.167778    0.251250    0.626250     0.001267
PT        0.223333    0.188750    0.626250     0.001267
PT        0.223333    0.251250    0.563750     0.001267
PT        0.278889    0.188750    0.563750     0.001267
PT        0.278889    0.251250    0.626250     0.001267
PT        0.334444    0.188750    0.626250     0.001267
PT        0.334444    0.251250    0.563750     0.001267
PT        0.390000    0.188750    0.563750     0.001267
PT        0.390000    0.251250    0.626250     0.001267
PT        0.445556    0.188750    0.626250     0.001267
PT        0.445556    0.251250    0.563750     0.001267
PT        0.501111    0.188750    0.563750     0.001267
PT        0.501111    0.251250    0.626250     0.001267
PT        0.556667    0.188750    0.626250     0.001267
PT        0.556667    0.251250    0.563750     0.001267
PT        0.612222    0.188750    0.563750     0.001267
PT        0.612222    0.251250    0.626250     0.001267
PT        0.667778    0.188750    0.626250     0.001267
PT        0.667778    0.251250    0.563750     0.001267
PT        0.723333    0.188750    0.563750     0.001267
PT        0.723333    0.251250    0.626250     0.001267
PT        0.001111    0.376250    0.563750     0.001267
PT        0.056667    0.313750    0.563750     0.001267
PT        0.056667    0.376250    0.626250     0.001267
PT        0.112222    0.313750    0.626250     0.001267
PT        0.112222    0.376250    0.563750     0.001267
PT        0.167778    0.313750    0.563750     0.001267
PT        0.167778    0.376250    0.626250     0.001267
PT        0.223333    0.313750    0.626250     0.001267
PT        0.223333    0.376250    0.563750     0.001267
PT        0.278889    0.313750    0.563750     0.001267
PT        0.278889    0.376250    0.626250     0.001267
PT        0.334444    0.313750    0.626250     0.001267
PT        0.334444    0.376250    0.563750     0.001267
PT        0.390000    0.313750    0.563750     0.001267
PT        0.390000    0.376250    0.626250     0.001267
PT        0.445556    0.313750    0.626250     0.001267
PT        0.445556    0.376250    0.563750     0.001267
PT        0.501111    0.313750    0.563750     0.001267
PT        0.501111    0.376250    0.626250     0.001267
PT        0.556667    0.313750    0.626250     0.001267
PT        0.556667    0.376250    0.563750     0.001267
PT        0.612222    0.313750    0.563750     0.001267
PT        0.612222    0.376250    0.626250     0.001267
PT        0.667778    0.313750    0.626250     0.001267
PT        0.667778    0.376250    0.563750     0.001267
PT        0.723333    0.313750    0.563750     0.001267
PT        0.723333    0.376250    0.626250     0.001267
PT        0.778889    0.376250    0.563750     0.001267
PT        0.001111    0.438750    0.626250     0.001267
PT        0.001111    0.501250    0.563750     0.001267
PT        0.056667    0.438750    0.563750     0.001267
PT        0.056667    0.501250    0.626250     0.001267
PT        0.112222    0.438750    0.626250     0.001267
PT        0.112222    0.501250    0.563750     0.001267
PT        0.167778    0.438750    0.563750     0.001267
PT        0.167778    0.501250    0.626250     0.001267
PT        0.223333    0.438750    0.626250     0.001267
PT        0.223333    0.501250    0.563750     0.001267
PT        0.278889    0.438750    0.563750     0.001267
PT        0.278889    0.501250    0.626250     0.001267
PT        0.334444    0.438750    0.626250     0.001267
PT        0.334444    0.501250    0.563750     0.001267
PT        0.390000    0.438750    0.563750     0.001267
PT        0.390000    0.501250    0.626250     0.001267
PT        0.445556    0.438750    0.626250     0.001267
PT        0.445556    0.501250    0.563750     0.001267
PT        0.501111    0.438750    0.563750     0.001267
PT        0.501111    0.501250    0.626250     0.001267
PT        0.556667    0.438750    0.626250     0.001267
PT        0.556667    0.501250    0.563750     0.001267
PT        0.612222    0.438750    0.563750     0.001267
PT        0.612222    0.501250    0.626250     0.001267
PT        0.667778    0.438750    0.626250     0.001267
PT        0.667778    0.501250    0.563750     0.001267
PT        0.723333    0.438750    0.563750     0.001267
PT        0.723333    0.501250    0.626250     0.001267
PT        0.778889    0.438750    0.626250     0.001267
PT        0.778889    0.501250    0.563750     0.001267
PT        0.056667    0.563750    0.563750     0.001267
PT        0.056667    0.626250    0.626250     0.001267
PT        0.112222    0.563750    0.626250     0.001267
PT        0.112222    0.626250    0.563750     0.001267
PT        0.167778    0.563750    0.563750     0.001267
PT        0.167778    0.626250    0.626250     0.001267
PT        0.223333    0.563750    0.626250     0.001267
PT        0.223333    0.626250    0.563750     0.001267
PT        0.278889    0.563750    0.563750     0.001267
PT        0.278889    0.626250    0.626250     0.001267
PT        0.334444    0.563750    0.626250     0.001267
PT        0.334444    0.626250    0.563750     0.001267
PT        0.390000    0.563750    0.563750     0.001267
PT        0.390000    0.626250    0.626250     0.001267
PT        0.445556    0.563750    0.626250     0.001267
PT        0.445556    0.626250    0.563750     0.001267
PT        0.501111    0.563750    0.563750     0.001267
PT        0.501111    0.626250    0.626250     0.001267
PT        0.556667    0.563750    0.626250     0.001267
PT        0.556667    0.626250    0.563750     0.001267
PT        0.612222    0.563750    0.563750     0.001267
PT        0.612222    0.626250    0.626250     0.001267
PT        0.667778    0.563750    0.626250     0.001267
PT        0.667778    0.626250    0.563750     0.001267
PT        0.723333    0.563750    0.563750     0.001267
PT        0.723333    0.626250    0.626250     0.001267
PT        0.056667    0.688750    0.563750     0.001267
PT        0.112222    0.688750    0.626250     0.001267
PT        0.112222    0.751250    0.563750     0.001267
PT        0.167778    0.688750    0.563750     0.001267
PT        0.167778    0.751250    0.626250     0.001267
PT        0.223333    0.688750    0.626250     0.001267
PT        0.223333    0.751250    0.563750     0.001267
PT        0.278889    0.688750    0.563750     0.001267
PT        0.278889    0.751250    0.626250     0.001267
PT        0.334444    0.688750    0.626250     0.001267
PT        0.334444    0.751250    0.563750     0.001267
PT        0.390000    0.688750    0.563750     0.001267
PT        0.390000    0.751250    0.626250     0.001267
PT        0.445556    0.688750    0.626250     0.001267
PT        0.445556    0.751250    0.563750     0.001267
PT        0.501111    0.688750    0.563750     0.001267
PT        0.501111    0.751250    0.626250     0.001267
PT        0.556667    0.688750    0.626250     0.001267
PT        0.556667    0.751250    0.563750     0.001267
PT        0.612222    0.688750    0.563750     0.001267
PT        0.612222    0.751250    0.626250     0.001267
PT        0.667778    0.688750    0.626250     0.001267
PT        0.667778    0.751250    0.563750     0.001267
PT        0.723333    0.688750    0.563750     0.001267
PT        0.167778    0.813750    0.563750     0.001267
PT        0.223333    0.813750    0.626250     0.001267
PT        0.278889    0.813750    0.563750     0.001267
PT        0.334444    0.813750    0.626250     0.001267
PT        0.334444    0.876250    0.563750     0.001267
PT        0.390000    0.813750    0.563750     0.001267
PT        0.390000    0.876250    0.626250     0.001267
PT        0.445556    0.813750    0.626250     0.001267
PT        0.445556    0.876250    0.563750     0.001267
PT        0.501111    0.813750    0.563750     0.001267
PT        0.556667    0.813750    0.626250     0.001267
PT        0.612222    0.813750    0.563750     0.001267
PT        0.223333    0.126250    0.688750     0.001267
PT        0.278889    0.063750    0.688750     0.001267
PT        0.278889    0.126250    0.751250     0.001267
PT        0.334444    0.126250    0.688750     0.001267
PT        0.390000    0.063750    0.688750     0.001267
PT        0.390000    0.126250    0.751250     0.001267
PT        0.445556    0.126250    0.688750     0.001267
PT        0.501111    0.063750    0.688750     0.001267
PT        0.501111    0.126250    0.751250     0.001267
PT        0.556667    0.126250    0.688750     0.001267
PT        0.112222    0.251250    0.688750     0.001267
PT        0.167778    0.188750    0.688750     0.001267
PT        0.167778    0.251250    0.751250     0.001267
PT        0.223333    0.188750    0.751250     0.001267
PT        0.223333    0.251250    0.688750     0.001267
PT        0.278889    0.188750    0.688750     0.001267
PT        0.278889    0.251250    0.751250     0.001267
PT        0.334444    0.188750    0.751250     0.001267
PT        0.334444    0.251250    0.688750     0.001267
PT        0.390000    0.188750    0.688750     0.001267
PT        0.390000    0.251250    0.751250     0.001267
PT        0.445556    0.188750    0.751250     0.001267
PT        0.445556    0.251250    0.688750     0.001267
PT        0.501111    0.188750    0.688750     0.001267
PT        0.501111    0.251250    0.751250     0.001267
PT        0.556667    0.188750    0.751250     0.001267
PT        0.556667    0.251250    0.688750     0.001267
PT        0.612222    0.188750    0.688750     0.001267
PT        0.612222    0.251250    0.751250     0.001267
PT        0.667778    0.251250    0.688750     0.001267
PT        0.056667    0.313750    0.688750     0.001267
PT        0.112222    0.313750    0.751250     0.001267
PT        0.112222    0.376250    0.688750     0.001267
PT        0.167778    0.313750    0.688750     0.001267
PT        0.167778    0.376250    0.751250     0.001267
PT        0.223333    0.313750    0.751250     0.001267
PT        0.223333    0.376250    0.688750     0.001267
PT        0.278889    0.313750    0.688750     0.001267
PT        0.278889    0.376250    0.751250     0.001267
PT        0.334444    0.313750    0.751250     0.001267
PT        0.334444    0.376250    0.688750     0.001267
PT        0.390000    0.313750    0.688750     0.001267
PT        0.390000    0.376250    0.751250     0.001267
PT        0.445556    0.313750    0.751250     0.001267
PT        0.445556    0.376250    0.688750     0.001267
PT        0.501111    0.313750    0.688750     0.001267
PT        0.501111    0.376250    0.751250     0.001267
PT        0.556667    0.313750    0.751250     0.001267
PT        0.556667    0.376250    0.688750     0.001267
PT        0.612222    0.313750    0.688750     0.001267
PT        0.612222    0.376250    0.751250     0.001267
PT        0.667778    0.313750    0.751250     0.001267
PT        0.667778    0.376250    0.688750     0.001267
PT        0.723333    0.313750    0.688750     0.001267
PT        0.056667    0.438750    0.688750     0.001267
PT        0.112222    0.438750    0.751250     0.001267
PT        0.112222    0.501250    0.688750     0.001267
PT        0.167778    0.438750    0.688750     0.001267
PT        0.167778    0.501250    0.751250     0.001267
PT        0.223333    0.438750    0.751250     0.001267
PT        0.223333    0.501250    0.688750     0.001267
PT        0.278889    0.438750    0.688750     0.001267
PT        0.278889    0.501250    0.751250     0.001267
PT        0.334444    0.438750    0.751250     0.001267
PT        0.334444    0.501250    0.688750     0.001267
PT        0.390000    0.438750    0.688750     0.001267
PT        0.390000    0.501250    0.751250     0.001267
PT        0.445556    0.438750    0.751250     0.001267
PT        0.445556    0.501250    0.688750     0.001267
PT        0.501111    0.438750    0.688750     0.001267
PT        0.501111    0.501250    0.751250     0.001267
PT        0.556667    0.438750    0.751250     0.001267
PT        0.556667    0.501250    0.688750     0.001267
PT        0.612222    0.438750    0.688750     0.001267
PT        0.612222    0.501250    0.751250     0.001267
PT        0.667778    0.438750    0.751250     0.001267
PT        0.667778    0.501250    0.688750     0.001267
PT        0.723333    0.438750    0.688750     0.001267
PT        0.056667    0.563750    0.688750     0.001267
PT        0.112222    0.563750    0.751250     0.001267
PT        0.112222    0.626250    0.688750     0.001267
PT        0.167778    0.563750    0.688750     0.001267
PT        0.167778    0.626250    0.751250     0.001267
PT        0.223333    0.563750    0.751250     0.001267
PT        0.223333    0.626250    0.688750     0.001267
PT        0.278889    0.563750    0.688750     0.001267
PT        0.278889    0.626250    0.751250     0.001267
PT        0.334444    0.563750    0.751250     0.001267
PT        0.334444    0.626250    0.688750     0.001267
PT        0.390000    0.563750    0.688750     0.001267
PT        0.390000    0.626250    0.751250     0.001267
PT        0.445556    0.563750    0.751250     0.001267
PT        0.445556    0.626250    0.688750     0.001267
PT        0.501111    0.563750    0.688750     0.001267
PT        0.501111    0.626250    0.751250     0.001267
PT        0.556667    0.563750    0.751250     0.001267
PT        0.556667    0.626250    0.688750     0.001267
PT        0.612222    0.563750    0.688750     0.001267
PT        0.612222    0.626250    0.751250     0.001267
PT        0.667778    0.563750    0.751250     0.001267
PT        0.667778    0.626250    0.688750     0.001267
PT        0.723333    0.563750    0.688750     0.001267
PT        0.167778    0.688750    0.688750     0.001267
PT        0.223333    0.688750    0.751250     0.001267
PT        0.223333    0.751250    0.688750     0.001267
PT        0.278889    0.688750    0.688750     0.001267
PT        0.278889    0.751250    0.751250     0.001267
PT        0.334444    0.688750    0.751250     0.001267
PT        0.334444    0.751250    0.688750     0.001267
PT        0.390000    0.688750    0.688750     0.001267
PT        0.390000    0.751250    0.751250     0.001267
PT        0.445556    0.688750    0.751250     0.001267
PT        0.445556    0.751250    0.688750     0.001267
PT        0.501111    0.688750    0.688750     0.001267
PT        0.501111    0.751250    0.751250     0.001267
PT        0.556667    0.688750    0.751250     0.001267
PT        0.556667    0.751250    0.688750     0.001267
PT        0.612222    0.688750    0.688750     0.001267
PT        0.278889    0.813750    0.688750     0.001267
PT        0.390000    0.813750    0.688750     0.001267
PT        0.501111    0.813750    0.688750     0.001267
PT        0.223333    0.251250    0.813750     0.001267
PT        0.278889    0.188750    0.813750     0.001267
PT        0.334444    0.251250    0.813750     0.001267
PT        0.390000    0.188750    0.813750     0.001267
PT        0.390000    0.251250    0.876250     0.001267
PT        0.445556    0.251250    0.813750     0.001267
PT        0.501111    0.188750    0.813750     0.001267
PT        0.556667    0.251250    0.813750     0.001267
PT        0.167778    0.313750    0.813750     0.001267
PT        0.223333    0.376250    0.813750     0.001267
PT        0.278889    0.313750    0.813750     0.001267
PT        0.278889    0.376250    0.876250     0.001267
PT        0.334444    0.313750    0.876250     0.001267
PT        0.334444    0.376250    0.813750     0.001267
PT        0.390000    0.313750    0.813750     0.001267
PT        0.390000    0.376250    0.876250     0.001267
PT        0.445556    0.313750    0.876250     0.001267
PT        0.445556    0.376250    0.813750     0.001267
PT        0.501111    0.313750    0.813750     0.001267
PT        0.501111    0.376250    0.876250     0.001267
PT        0.556667    0.376250    0.813750     0.001267
PT        0.612222    0.313750    0.813750     0.001267
PT        0.167778    0.438750    0.813750     0.001267
PT        0.223333    0.438750    0.876250     0.001267
PT        0.223333    0.501250    0.813750     0.001267
PT        0.278889    0.438750    0.813750     0.001267
PT        0.278889    0.501250    0.876250     0.001267
PT        0.334444    0.438750    0.876250     0.001267
PT        0.334444    0.501250    0.813750     0.001267
PT        0.390000    0.438750    0.813750     0.001267
PT        0.390000    0.501250    0.876250     0.001267
PT        0.445556    0.438750    0.876250     0.001267
PT        0.445556    0.501250    0.813750     0.001267
PT        0.501111    0.438750    0.813750     0.001267
PT        0.501111    0.501250    0.876250     0.001267
PT        0.556667    0.438750    0.876250     0.001267
PT        0.556667    0.501250    0.813750     0.001267
PT        0.612222    0.438750    0.813750     0.001267
PT        0.167778    0.563750    0.813750     0.001267
PT        0.223333    0.626250    0.813750     0.001267
PT        0.278889    0.563750    0.813750     0.001267
PT        0.334444    0.563750    0.876250     0.001267
PT        0.334444    0.626250    0.813750     0.001267
PT        0.390000    0.563750    0.813750     0.001267
PT        0.390000    0.626250    0.876250     0.001267
PT        0.445556    0.563750    0.876250     0.001267
PT        0.445556    0.626250    0.813750     0.001267
PT        0.501111    0.563750    0.813750     0.001267
PT        0.556667    0.626250    0.813750     0.001267
PT        0.612222    0.563750    0.813750     0.001267
PT        0.278889    0.688750    0.813750     0.001267
PT        0.390000    0.688750    0.813750     0.001267
PT        0.501111    0.688750    0.813750     0.001267
