data_00001
_audit_creation_method   'DISCUS'

_cell_length_a        36.5786
_cell_length_b        36.5786
_cell_length_c        36.5786
_cell_angle_alpha     90.0000
_cell_angle_beta      90.0000
_cell_angle_gamma     90.0000

_symmetry_space_group_name_H-M   'P1'

loop_
_atom_site_label
_atom_site_fract_x
_atom_site_fract_y
_atom_site_fract_z
_atom_site_u_iso_or_equiv
AU        0.710205    0.654508    0.376998     0.100000
AU        0.821316    0.654508    0.376998     0.100000
AU        0.710205    0.765620    0.376998     0.100000
AU        0.821316    0.765620    0.376998     0.100000
AU        0.710205    0.876731    0.376998     0.100000
AU        0.821316    0.876731    0.376998     0.100000
AU        0.599094    0.543397    0.488109     0.100000
AU        0.599094    0.598953    0.432554     0.100000
AU        0.654650    0.598953    0.488109     0.100000
AU        0.710205    0.543397    0.488109     0.100000
AU        0.765761    0.543397    0.432554     0.100000
AU        0.765761    0.598953    0.488109     0.100000
AU        0.821316    0.543397    0.488109     0.100000
AU        0.876872    0.598953    0.488109     0.100000
AU        0.932427    0.543397    0.488109     0.100000
AU        0.987983    0.598953    0.488109     0.100000
AU        0.487983    0.654508    0.488109     0.100000
AU        0.599094    0.654508    0.488109     0.100000
AU        0.599094    0.710064    0.432554     0.100000
AU        0.654650    0.654508    0.432554     0.100000
AU        0.654650    0.710064    0.488109     0.100000
AU        0.710205    0.654508    0.488109     0.100000
AU        0.710205    0.710064    0.432554     0.100000
AU        0.765761    0.654508    0.432554     0.100000
AU        0.765761    0.710064    0.488109     0.100000
AU        0.821316    0.654508    0.488109     0.100000
AU        0.821316    0.710064    0.432554     0.100000
AU        0.876872    0.654508    0.432554     0.100000
AU        0.876872    0.710064    0.488109     0.100000
AU        0.932427    0.654508    0.488109     0.100000
AU        0.932427    0.710064    0.432554     0.100000
AU        1.043539    0.654508    0.488109     0.100000
AU        0.487983    0.765620    0.488109     0.100000
AU        0.543539    0.765620    0.432554     0.100000
AU        0.599094    0.765620    0.488109     0.100000
AU        0.599094    0.821175    0.432554     0.100000
AU        0.654650    0.765620    0.432554     0.100000
AU        0.654650    0.821175    0.488109     0.100000
AU        0.710205    0.765620    0.488109     0.100000
AU        0.710205    0.821175    0.432554     0.100000
AU        0.765761    0.765620    0.432554     0.100000
AU        0.765761    0.821175    0.488109     0.100000
AU        0.821316    0.765620    0.488109     0.100000
AU        0.821316    0.821175    0.432554     0.100000
AU        0.876872    0.765620    0.432554     0.100000
AU        0.876872    0.821175    0.488109     0.100000
AU        0.932427    0.765620    0.488109     0.100000
AU        0.932427    0.821175    0.432554     0.100000
AU        0.987983    0.765620    0.432554     0.100000
AU        1.043539    0.765620    0.488109     0.100000
AU        0.487983    0.876731    0.488109     0.100000
AU        0.599094    0.876731    0.488109     0.100000
AU        0.599094    0.932286    0.432554     0.100000
AU        0.654650    0.876731    0.432554     0.100000
AU        0.654650    0.932286    0.488109     0.100000
AU        0.710205    0.876731    0.488109     0.100000
AU        0.765761    0.876731    0.432554     0.100000
AU        0.765761    0.932286    0.488109     0.100000
AU        0.821316    0.876731    0.488109     0.100000
AU        0.876872    0.876731    0.432554     0.100000
AU        0.876872    0.932286    0.488109     0.100000
AU        0.932427    0.876731    0.488109     0.100000
AU        0.987983    0.932286    0.488109     0.100000
AU        1.043539    0.876731    0.488109     0.100000
AU        0.599094    0.987842    0.488109     0.100000
AU        0.710205    0.987842    0.488109     0.100000
AU        0.765761    0.987842    0.432554     0.100000
AU        0.821316    0.987842    0.488109     0.100000
AU        0.932427    0.987842    0.488109     0.100000
AU        0.599094    0.432286    0.599221     0.100000
AU        0.599094    0.487842    0.543665     0.100000
AU        0.654650    0.487842    0.599221     0.100000
AU        0.710205    0.487842    0.543665     0.100000
AU        0.765761    0.432286    0.543665     0.100000
AU        0.765761    0.487842    0.599221     0.100000
AU        0.821316    0.487842    0.543665     0.100000
AU        0.876872    0.487842    0.599221     0.100000
AU        0.932427    0.487842    0.543665     0.100000
AU        0.987983    0.487842    0.599221     0.100000
AU        0.487983    0.543397    0.599221     0.100000
AU        0.487983    0.598953    0.543665     0.100000
AU        0.543539    0.543397    0.543665     0.100000
AU        0.543539    0.598953    0.599221     0.100000
AU        0.599094    0.543397    0.599221     0.100000
AU        0.599094    0.598953    0.543665     0.100000
AU        0.654650    0.543397    0.543665     0.100000
AU        0.654650    0.598953    0.599221     0.100000
AU        0.710205    0.543397    0.599221     0.100000
AU        0.710205    0.598953    0.543665     0.100000
AU        0.765761    0.543397    0.543665     0.100000
AU        0.765761    0.598953    0.599221     0.100000
AU        0.821316    0.543397    0.599221     0.100000
AU        0.821316    0.598953    0.543665     0.100000
AU        0.876872    0.543397    0.543665     0.100000
AU        0.876872    0.598953    0.599221     0.100000
AU        0.932427    0.543397    0.599221     0.100000
AU        0.932427    0.598953    0.543665     0.100000
AU        0.987983    0.598953    0.599221     0.100000
AU        1.043539    0.543397    0.599221     0.100000
AU        1.043539    0.598953    0.543665     0.100000
AU        0.487983    0.654508    0.599221     0.100000
AU        0.487983    0.710064    0.543665     0.100000
AU        0.543539    0.654508    0.543665     0.100000
AU        0.543539    0.710064    0.599221     0.100000
AU        0.599094    0.654508    0.599221     0.100000
AU        0.599094    0.710064    0.543665     0.100000
AU        0.654650    0.654508    0.543665     0.100000
AU        0.654650    0.710064    0.599221     0.100000
AU        0.710205    0.654508    0.599221     0.100000
AU        0.710205    0.710064    0.543665     0.100000
AU        0.765761    0.654508    0.543665     0.100000
AU        0.765761    0.710064    0.599221     0.100000
AU        0.821316    0.654508    0.599221     0.100000
AU        0.821316    0.710064    0.543665     0.100000
AU        0.876872    0.654508    0.543665     0.100000
AU        0.876872    0.710064    0.599221     0.100000
AU        0.932427    0.654508    0.599221     0.100000
AU        0.932427    0.710064    0.543665     0.100000
AU        0.987983    0.654508    0.543665     0.100000
AU        0.987983    0.710064    0.599221     0.100000
AU        1.043539    0.654508    0.599221     0.100000
AU        1.043539    0.710064    0.543665     0.100000
AU        0.432427    0.765620    0.543665     0.100000
AU        0.487983    0.765620    0.599221     0.100000
AU        0.487983    0.821175    0.543665     0.100000
AU        0.543539    0.765620    0.543665     0.100000
AU        0.543539    0.821175    0.599221     0.100000
AU        0.599094    0.765620    0.599221     0.100000
AU        0.599094    0.821175    0.543665     0.100000
AU        0.654650    0.765620    0.543665     0.100000
AU        0.654650    0.821175    0.599221     0.100000
AU        0.710205    0.765620    0.599221     0.100000
AU        0.710205    0.821175    0.543665     0.100000
AU        0.765761    0.765620    0.543665     0.100000
AU        0.765761    0.821175    0.599221     0.100000
AU        0.821316    0.765620    0.599221     0.100000
AU        0.821316    0.821175    0.543665     0.100000
AU        0.876872    0.765620    0.543665     0.100000
AU        0.876872    0.821175    0.599221     0.100000
AU        0.932427    0.765620    0.599221     0.100000
AU        0.932427    0.821175    0.543665     0.100000
AU        0.987983    0.765620    0.543665     0.100000
AU        0.987983    0.821175    0.599221     0.100000
AU        1.043539    0.765620    0.599221     0.100000
AU        1.043539    0.821175    0.543665     0.100000
AU        1.099094    0.765620    0.543665     0.100000
AU        0.487983    0.876731    0.599221     0.100000
AU        0.487983    0.932286    0.543665     0.100000
AU        0.543539    0.876731    0.543665     0.100000
AU        0.543539    0.932286    0.599221     0.100000
AU        0.599094    0.876731    0.599221     0.100000
AU        0.599094    0.932286    0.543665     0.100000
AU        0.654650    0.876731    0.543665     0.100000
AU        0.654650    0.932286    0.599221     0.100000
AU        0.710205    0.876731    0.599221     0.100000
AU        0.710205    0.932286    0.543665     0.100000
AU        0.765761    0.876731    0.543665     0.100000
AU        0.765761    0.932286    0.599221     0.100000
AU        0.821316    0.876731    0.599221     0.100000
AU        0.821316    0.932286    0.543665     0.100000
AU        0.876872    0.876731    0.543665     0.100000
AU        0.876872    0.932286    0.599221     0.100000
AU        0.932427    0.876731    0.599221     0.100000
AU        0.932427    0.932286    0.543665     0.100000
AU        0.987983    0.876731    0.543665     0.100000
AU        0.987983    0.932286    0.599221     0.100000
AU        1.043539    0.876731    0.599221     0.100000
AU        1.099094    0.932286    0.599221     0.100000
AU        0.487983    0.987842    0.599221     0.100000
AU        0.543539    0.987842    0.543665     0.100000
AU        0.599094    0.987842    0.599221     0.100000
AU        0.599094    1.043397    0.543665     0.100000
AU        0.654650    0.987842    0.543665     0.100000
AU        0.654650    1.043397    0.599221     0.100000
AU        0.710205    0.987842    0.599221     0.100000
AU        0.710205    1.043397    0.543665     0.100000
AU        0.765761    0.987842    0.543665     0.100000
AU        0.765761    1.043397    0.599221     0.100000
AU        0.821316    0.987842    0.599221     0.100000
AU        0.821316    1.043397    0.543665     0.100000
AU        0.876872    0.987842    0.543665     0.100000
AU        0.876872    1.043397    0.599221     0.100000
AU        0.932427    0.987842    0.599221     0.100000
AU        0.932427    1.043397    0.543665     0.100000
AU        0.987983    0.987842    0.543665     0.100000
AU        1.043539    0.987842    0.599221     0.100000
AU        0.599094    1.098953    0.599221     0.100000
AU        0.765761    1.098953    0.543665     0.100000
AU        0.932427    1.098953    0.599221     0.100000
AU        0.710205    0.376731    0.654776     0.100000
AU        0.821316    0.376731    0.654776     0.100000
AU        0.487983    0.487842    0.654776     0.100000
AU        0.599094    0.432286    0.710332     0.100000
AU        0.599094    0.487842    0.654776     0.100000
AU        0.654650    0.432286    0.654776     0.100000
AU        0.654650    0.487842    0.710332     0.100000
AU        0.710205    0.432286    0.710332     0.100000
AU        0.710205    0.487842    0.654776     0.100000
AU        0.765761    0.432286    0.654776     0.100000
AU        0.765761    0.487842    0.710332     0.100000
AU        0.821316    0.432286    0.710332     0.100000
AU        0.821316    0.487842    0.654776     0.100000
AU        0.876872    0.432286    0.654776     0.100000
AU        0.876872    0.487842    0.710332     0.100000
AU        0.932427    0.432286    0.710332     0.100000
AU        0.932427    0.487842    0.654776     0.100000
AU        1.043539    0.487842    0.654776     0.100000
AU        0.487983    0.543397    0.710332     0.100000
AU        0.487983    0.598953    0.654776     0.100000
AU        0.543539    0.543397    0.654776     0.100000
AU        0.543539    0.598953    0.710332     0.100000
AU        0.599094    0.543397    0.710332     0.100000
AU        0.599094    0.598953    0.654776     0.100000
AU        0.654650    0.543397    0.654776     0.100000
AU        0.654650    0.598953    0.710332     0.100000
AU        0.710205    0.543397    0.710332     0.100000
AU        0.710205    0.598953    0.654776     0.100000
AU        0.765761    0.543397    0.654776     0.100000
AU        0.765761    0.598953    0.710332     0.100000
AU        0.821316    0.543397    0.710332     0.100000
AU        0.821316    0.598953    0.654776     0.100000
AU        0.876872    0.543397    0.654776     0.100000
AU        0.876872    0.598953    0.710332     0.100000
AU        0.932427    0.543397    0.710332     0.100000
AU        0.932427    0.598953    0.654776     0.100000
AU        0.987983    0.543397    0.654776     0.100000
AU        0.987983    0.598953    0.710332     0.100000
AU        1.043539    0.543397    0.710332     0.100000
AU        1.043539    0.598953    0.654776     0.100000
AU        0.376872    0.654508    0.710332     0.100000
AU        0.376872    0.710064    0.654776     0.100000
AU        0.432427    0.654508    0.654776     0.100000
AU        0.432427    0.710064    0.710332     0.100000
AU        0.487983    0.654508    0.710332     0.100000
AU        0.487983    0.710064    0.654776     0.100000
AU        0.543539    0.654508    0.654776     0.100000
AU        0.543539    0.710064    0.710332     0.100000
AU        0.599094    0.654508    0.710332     0.100000
AU        0.599094    0.710064    0.654776     0.100000
AU        0.654650    0.654508    0.654776     0.100000
AU        0.654650    0.710064    0.710332     0.100000
AU        0.710205    0.654508    0.710332     0.100000
AU        0.710205    0.710064    0.654776     0.100000
AU        0.765761    0.654508    0.654776     0.100000
AU        0.765761    0.710064    0.710332     0.100000
AU        0.821316    0.654508    0.710332     0.100000
AU        0.821316    0.710064    0.654776     0.100000
AU        0.876872    0.654508    0.654776     0.100000
AU        0.876872    0.710064    0.710332     0.100000
AU        0.932427    0.654508    0.710332     0.100000
AU        0.932427    0.710064    0.654776     0.100000
AU        0.987983    0.654508    0.654776     0.100000
AU        0.987983    0.710064    0.710332     0.100000
AU        1.043539    0.654508    0.710332     0.100000
AU        1.043539    0.710064    0.654776     0.100000
AU        1.099094    0.654508    0.654776     0.100000
AU        1.099094    0.710064    0.710332     0.100000
AU        1.154650    0.654508    0.710332     0.100000
AU        1.154650    0.710064    0.654776     0.100000
AU        0.376872    0.821175    0.654776     0.100000
AU        0.432427    0.765620    0.654776     0.100000
AU        0.432427    0.821175    0.710332     0.100000
AU        0.487983    0.765620    0.710332     0.100000
AU        0.487983    0.821175    0.654776     0.100000
AU        0.543539    0.765620    0.654776     0.100000
AU        0.543539    0.821175    0.710332     0.100000
AU        0.599094    0.765620    0.710332     0.100000
AU        0.599094    0.821175    0.654776     0.100000
AU        0.654650    0.765620    0.654776     0.100000
AU        0.654650    0.821175    0.710332     0.100000
AU        0.710205    0.765620    0.710332     0.100000
AU        0.710205    0.821175    0.654776     0.100000
AU        0.765761    0.765620    0.654776     0.100000
AU        0.765761    0.821175    0.710332     0.100000
AU        0.821316    0.765620    0.710332     0.100000
AU        0.821316    0.821175    0.654776     0.100000
AU        0.876872    0.765620    0.654776     0.100000
AU        0.876872    0.821175    0.710332     0.100000
AU        0.932427    0.765620    0.710332     0.100000
AU        0.932427    0.821175    0.654776     0.100000
AU        0.987983    0.765620    0.654776     0.100000
AU        0.987983    0.821175    0.710332     0.100000
AU        1.043539    0.765620    0.710332     0.100000
AU        1.043539    0.821175    0.654776     0.100000
AU        1.099094    0.765620    0.654776     0.100000
AU        1.099094    0.821175    0.710332     0.100000
AU        1.154650    0.821175    0.654776     0.100000
AU        0.432427    0.876731    0.654776     0.100000
AU        0.432427    0.932286    0.710332     0.100000
AU        0.487983    0.876731    0.710332     0.100000
AU        0.487983    0.932286    0.654776     0.100000
AU        0.543539    0.876731    0.654776     0.100000
AU        0.543539    0.932286    0.710332     0.100000
AU        0.599094    0.876731    0.710332     0.100000
AU        0.599094    0.932286    0.654776     0.100000
AU        0.654650    0.876731    0.654776     0.100000
AU        0.654650    0.932286    0.710332     0.100000
AU        0.710205    0.876731    0.710332     0.100000
AU        0.710205    0.932286    0.654776     0.100000
AU        0.765761    0.876731    0.654776     0.100000
AU        0.765761    0.932286    0.710332     0.100000
AU        0.821316    0.876731    0.710332     0.100000
AU        0.821316    0.932286    0.654776     0.100000
AU        0.876872    0.876731    0.654776     0.100000
AU        0.876872    0.932286    0.710332     0.100000
AU        0.932427    0.876731    0.710332     0.100000
AU        0.932427    0.932286    0.654776     0.100000
AU        0.987983    0.876731    0.654776     0.100000
AU        0.987983    0.932286    0.710332     0.100000
AU        1.043539    0.876731    0.710332     0.100000
AU        1.043539    0.932286    0.654776     0.100000
AU        1.099094    0.876731    0.654776     0.100000
AU        1.154650    0.876731    0.710332     0.100000
AU        0.487983    1.043397    0.654776     0.100000
AU        0.543539    0.987842    0.654776     0.100000
AU        0.543539    1.043397    0.710332     0.100000
AU        0.599094    0.987842    0.710332     0.100000
AU        0.599094    1.043397    0.654776     0.100000
AU        0.654650    0.987842    0.654776     0.100000
AU        0.654650    1.043397    0.710332     0.100000
AU        0.710205    0.987842    0.710332     0.100000
AU        0.710205    1.043397    0.654776     0.100000
AU        0.765761    0.987842    0.654776     0.100000
AU        0.765761    1.043397    0.710332     0.100000
AU        0.821316    0.987842    0.710332     0.100000
AU        0.821316    1.043397    0.654776     0.100000
AU        0.876872    0.987842    0.654776     0.100000
AU        0.876872    1.043397    0.710332     0.100000
AU        0.932427    0.987842    0.710332     0.100000
AU        0.932427    1.043397    0.654776     0.100000
AU        0.987983    0.987842    0.654776     0.100000
AU        1.043539    0.987842    0.710332     0.100000
AU        1.043539    1.043397    0.654776     0.100000
AU        0.654650    1.098953    0.654776     0.100000
AU        0.654650    1.154508    0.710332     0.100000
AU        0.710205    1.098953    0.710332     0.100000
AU        0.710205    1.154508    0.654776     0.100000
AU        0.765761    1.098953    0.654776     0.100000
AU        0.821316    1.098953    0.710332     0.100000
AU        0.821316    1.154508    0.654776     0.100000
AU        0.876872    1.098953    0.654776     0.100000
AU        0.932427    1.098953    0.710332     0.100000
AU        0.710205    0.376731    0.765887     0.100000
AU        0.821316    0.376731    0.765887     0.100000
AU        0.487983    0.487842    0.765887     0.100000
AU        0.543539    0.432286    0.765887     0.100000
AU        0.599094    0.432286    0.821443     0.100000
AU        0.599094    0.487842    0.765887     0.100000
AU        0.654650    0.432286    0.765887     0.100000
AU        0.654650    0.487842    0.821443     0.100000
AU        0.710205    0.432286    0.821443     0.100000
AU        0.710205    0.487842    0.765887     0.100000
AU        0.765761    0.432286    0.765887     0.100000
AU        0.765761    0.487842    0.821443     0.100000
AU        0.821316    0.432286    0.821443     0.100000
AU        0.821316    0.487842    0.765887     0.100000
AU        0.876872    0.432286    0.765887     0.100000
AU        0.876872    0.487842    0.821443     0.100000
AU        0.932427    0.432286    0.821443     0.100000
AU        0.932427    0.487842    0.765887     0.100000
AU        0.987983    0.432286    0.765887     0.100000
AU        1.043539    0.487842    0.765887     0.100000
AU        0.432427    0.543397    0.765887     0.100000
AU        0.487983    0.543397    0.821443     0.100000
AU        0.487983    0.598953    0.765887     0.100000
AU        0.543539    0.543397    0.765887     0.100000
AU        0.543539    0.598953    0.821443     0.100000
AU        0.599094    0.543397    0.821443     0.100000
AU        0.599094    0.598953    0.765887     0.100000
AU        0.654650    0.543397    0.765887     0.100000
AU        0.654650    0.598953    0.821443     0.100000
AU        0.710205    0.543397    0.821443     0.100000
AU        0.710205    0.598953    0.765887     0.100000
AU        0.765761    0.543397    0.765887     0.100000
AU        0.765761    0.598953    0.821443     0.100000
AU        0.821316    0.543397    0.821443     0.100000
AU        0.821316    0.598953    0.765887     0.100000
AU        0.876872    0.543397    0.765887     0.100000
AU        0.876872    0.598953    0.821443     0.100000
AU        0.932427    0.543397    0.821443     0.100000
AU        0.932427    0.598953    0.765887     0.100000
AU        0.987983    0.543397    0.765887     0.100000
AU        0.987983    0.598953    0.821443     0.100000
AU        1.043539    0.543397    0.821443     0.100000
AU        1.043539    0.598953    0.765887     0.100000
AU        1.099094    0.543397    0.765887     0.100000
AU        0.376872    0.654508    0.821443     0.100000
AU        0.376872    0.710064    0.765887     0.100000
AU        0.432427    0.654508    0.765887     0.100000
AU        0.432427    0.710064    0.821443     0.100000
AU        0.487983    0.654508    0.821443     0.100000
AU        0.487983    0.710064    0.765887     0.100000
AU        0.543539    0.654508    0.765887     0.100000
AU        0.543539    0.710064    0.821443     0.100000
AU        0.599094    0.654508    0.821443     0.100000
AU        0.599094    0.710064    0.765887     0.100000
AU        0.654650    0.654508    0.765887     0.100000
AU        0.654650    0.710064    0.821443     0.100000
AU        0.710205    0.654508    0.821443     0.100000
AU        0.710205    0.710064    0.765887     0.100000
AU        0.765761    0.654508    0.765887     0.100000
AU        0.765761    0.710064    0.821443     0.100000
AU        0.821316    0.654508    0.821443     0.100000
AU        0.821316    0.710064    0.765887     0.100000
AU        0.876872    0.654508    0.765887     0.100000
AU        0.876872    0.710064    0.821443     0.100000
AU        0.932427    0.654508    0.821443     0.100000
AU        0.932427    0.710064    0.765887     0.100000
AU        0.987983    0.654508    0.765887     0.100000
AU        0.987983    0.710064    0.821443     0.100000
AU        1.043539    0.654508    0.821443     0.100000
AU        1.043539    0.710064    0.765887     0.100000
AU        1.099094    0.654508    0.765887     0.100000
AU        1.099094    0.710064    0.821443     0.100000
AU        1.154650    0.654508    0.821443     0.100000
AU        1.154650    0.710064    0.765887     0.100000
AU        0.376872    0.821175    0.765887     0.100000
AU        0.432427    0.765620    0.765887     0.100000
AU        0.432427    0.821175    0.821443     0.100000
AU        0.487983    0.765620    0.821443     0.100000
AU        0.487983    0.821175    0.765887     0.100000
AU        0.543539    0.765620    0.765887     0.100000
AU        0.543539    0.821175    0.821443     0.100000
AU        0.599094    0.765620    0.821443     0.100000
AU        0.599094    0.821175    0.765887     0.100000
AU        0.654650    0.765620    0.765887     0.100000
AU        0.654650    0.821175    0.821443     0.100000
AU        0.710205    0.765620    0.821443     0.100000
AU        0.710205    0.821175    0.765887     0.100000
AU        0.765761    0.765620    0.765887     0.100000
AU        0.765761    0.821175    0.821443     0.100000
AU        0.821316    0.765620    0.821443     0.100000
AU        0.821316    0.821175    0.765887     0.100000
AU        0.876872    0.765620    0.765887     0.100000
AU        0.876872    0.821175    0.821443     0.100000
AU        0.932427    0.765620    0.821443     0.100000
AU        0.932427    0.821175    0.765887     0.100000
AU        0.987983    0.765620    0.765887     0.100000
AU        0.987983    0.821175    0.821443     0.100000
AU        1.043539    0.765620    0.821443     0.100000
AU        1.043539    0.821175    0.765887     0.100000
AU        1.099094    0.765620    0.765887     0.100000
AU        1.099094    0.821175    0.821443     0.100000
AU        1.154650    0.821175    0.765887     0.100000
AU        0.432427    0.876731    0.765887     0.100000
AU        0.432427    0.932286    0.821443     0.100000
AU        0.487983    0.876731    0.821443     0.100000
AU        0.487983    0.932286    0.765887     0.100000
AU        0.543539    0.876731    0.765887     0.100000
AU        0.543539    0.932286    0.821443     0.100000
AU        0.599094    0.876731    0.821443     0.100000
AU        0.599094    0.932286    0.765887     0.100000
AU        0.654650    0.876731    0.765887     0.100000
AU        0.654650    0.932286    0.821443     0.100000
AU        0.710205    0.876731    0.821443     0.100000
AU        0.710205    0.932286    0.765887     0.100000
AU        0.765761    0.876731    0.765887     0.100000
AU        0.765761    0.932286    0.821443     0.100000
AU        0.821316    0.876731    0.821443     0.100000
AU        0.821316    0.932286    0.765887     0.100000
AU        0.876872    0.876731    0.765887     0.100000
AU        0.876872    0.932286    0.821443     0.100000
AU        0.932427    0.876731    0.821443     0.100000
AU        0.932427    0.932286    0.765887     0.100000
AU        0.987983    0.876731    0.765887     0.100000
AU        0.987983    0.932286    0.821443     0.100000
AU        1.043539    0.876731    0.821443     0.100000
AU        1.043539    0.932286    0.765887     0.100000
AU        1.099094    0.876731    0.765887     0.100000
AU        1.154650    0.876731    0.821443     0.100000
AU        0.432427    0.987842    0.765887     0.100000
AU        0.487983    1.043397    0.765887     0.100000
AU        0.543539    0.987842    0.765887     0.100000
AU        0.543539    1.043397    0.821443     0.100000
AU        0.599094    0.987842    0.821443     0.100000
AU        0.599094    1.043397    0.765887     0.100000
AU        0.654650    0.987842    0.765887     0.100000
AU        0.654650    1.043397    0.821443     0.100000
AU        0.710205    0.987842    0.821443     0.100000
AU        0.710205    1.043397    0.765887     0.100000
AU        0.765761    0.987842    0.765887     0.100000
AU        0.765761    1.043397    0.821443     0.100000
AU        0.821316    0.987842    0.821443     0.100000
AU        0.821316    1.043397    0.765887     0.100000
AU        0.876872    0.987842    0.765887     0.100000
AU        0.876872    1.043397    0.821443     0.100000
AU        0.932427    0.987842    0.821443     0.100000
AU        0.932427    1.043397    0.765887     0.100000
AU        0.987983    0.987842    0.765887     0.100000
AU        1.043539    0.987842    0.821443     0.100000
AU        1.043539    1.043397    0.765887     0.100000
AU        1.099094    0.987842    0.765887     0.100000
AU        0.543539    1.098953    0.765887     0.100000
AU        0.654650    1.098953    0.765887     0.100000
AU        0.654650    1.154508    0.821443     0.100000
AU        0.710205    1.098953    0.821443     0.100000
AU        0.710205    1.154508    0.765887     0.100000
AU        0.765761    1.098953    0.765887     0.100000
AU        0.821316    1.098953    0.821443     0.100000
AU        0.821316    1.154508    0.765887     0.100000
AU        0.876872    1.098953    0.765887     0.100000
AU        0.932427    1.098953    0.821443     0.100000
AU        0.987983    1.098953    0.765887     0.100000
AU        0.710205    0.376731    0.876998     0.100000
AU        0.821316    0.376731    0.876998     0.100000
AU        0.487983    0.487842    0.876998     0.100000
AU        0.599094    0.432286    0.932554     0.100000
AU        0.599094    0.487842    0.876998     0.100000
AU        0.654650    0.432286    0.876998     0.100000
AU        0.654650    0.487842    0.932554     0.100000
AU        0.710205    0.487842    0.876998     0.100000
AU        0.765761    0.432286    0.876998     0.100000
AU        0.765761    0.487842    0.932554     0.100000
AU        0.821316    0.487842    0.876998     0.100000
AU        0.876872    0.432286    0.876998     0.100000
AU        0.876872    0.487842    0.932554     0.100000
AU        0.932427    0.487842    0.876998     0.100000
AU        0.987983    0.487842    0.932554     0.100000
AU        1.043539    0.487842    0.876998     0.100000
AU        0.487983    0.543397    0.932554     0.100000
AU        0.487983    0.598953    0.876998     0.100000
AU        0.543539    0.543397    0.876998     0.100000
AU        0.543539    0.598953    0.932554     0.100000
AU        0.599094    0.543397    0.932554     0.100000
AU        0.599094    0.598953    0.876998     0.100000
AU        0.654650    0.543397    0.876998     0.100000
AU        0.654650    0.598953    0.932554     0.100000
AU        0.710205    0.543397    0.932554     0.100000
AU        0.710205    0.598953    0.876998     0.100000
AU        0.765761    0.543397    0.876998     0.100000
AU        0.765761    0.598953    0.932554     0.100000
AU        0.821316    0.543397    0.932554     0.100000
AU        0.821316    0.598953    0.876998     0.100000
AU        0.876872    0.543397    0.876998     0.100000
AU        0.876872    0.598953    0.932554     0.100000
AU        0.932427    0.543397    0.932554     0.100000
AU        0.932427    0.598953    0.876998     0.100000
AU        0.987983    0.543397    0.876998     0.100000
AU        0.987983    0.598953    0.932554     0.100000
AU        1.043539    0.598953    0.876998     0.100000
AU        1.099094    0.598953    0.932554     0.100000
AU        0.376872    0.710064    0.876998     0.100000
AU        0.432427    0.654508    0.876998     0.100000
AU        0.487983    0.654508    0.932554     0.100000
AU        0.487983    0.710064    0.876998     0.100000
AU        0.543539    0.654508    0.876998     0.100000
AU        0.543539    0.710064    0.932554     0.100000
AU        0.599094    0.654508    0.932554     0.100000
AU        0.599094    0.710064    0.876998     0.100000
AU        0.654650    0.654508    0.876998     0.100000
AU        0.654650    0.710064    0.932554     0.100000
AU        0.710205    0.654508    0.932554     0.100000
AU        0.710205    0.710064    0.876998     0.100000
AU        0.765761    0.654508    0.876998     0.100000
AU        0.765761    0.710064    0.932554     0.100000
AU        0.821316    0.654508    0.932554     0.100000
AU        0.821316    0.710064    0.876998     0.100000
AU        0.876872    0.654508    0.876998     0.100000
AU        0.876872    0.710064    0.932554     0.100000
AU        0.932427    0.654508    0.932554     0.100000
AU        0.932427    0.710064    0.876998     0.100000
AU        0.987983    0.654508    0.876998     0.100000
AU        0.987983    0.710064    0.932554     0.100000
AU        1.043539    0.654508    0.932554     0.100000
AU        1.043539    0.710064    0.876998     0.100000
AU        1.099094    0.654508    0.876998     0.100000
AU        1.154650    0.710064    0.876998     0.100000
AU        0.376872    0.821175    0.876998     0.100000
AU        0.432427    0.765620    0.876998     0.100000
AU        0.487983    0.765620    0.932554     0.100000
AU        0.487983    0.821175    0.876998     0.100000
AU        0.543539    0.765620    0.876998     0.100000
AU        0.543539    0.821175    0.932554     0.100000
AU        0.599094    0.765620    0.932554     0.100000
AU        0.599094    0.821175    0.876998     0.100000
AU        0.654650    0.765620    0.876998     0.100000
AU        0.654650    0.821175    0.932554     0.100000
AU        0.710205    0.765620    0.932554     0.100000
AU        0.710205    0.821175    0.876998     0.100000
AU        0.765761    0.765620    0.876998     0.100000
AU        0.765761    0.821175    0.932554     0.100000
AU        0.821316    0.765620    0.932554     0.100000
AU        0.821316    0.821175    0.876998     0.100000
AU        0.876872    0.765620    0.876998     0.100000
AU        0.876872    0.821175    0.932554     0.100000
AU        0.932427    0.765620    0.932554     0.100000
AU        0.932427    0.821175    0.876998     0.100000
AU        0.987983    0.765620    0.876998     0.100000
AU        0.987983    0.821175    0.932554     0.100000
AU        1.043539    0.765620    0.932554     0.100000
AU        1.043539    0.821175    0.876998     0.100000
AU        1.099094    0.765620    0.876998     0.100000
AU        1.154650    0.821175    0.876998     0.100000
AU        0.432427    0.876731    0.876998     0.100000
AU        0.487983    0.876731    0.932554     0.100000
AU        0.487983    0.932286    0.876998     0.100000
AU        0.543539    0.876731    0.876998     0.100000
AU        0.543539    0.932286    0.932554     0.100000
AU        0.599094    0.876731    0.932554     0.100000
AU        0.599094    0.932286    0.876998     0.100000
AU        0.654650    0.876731    0.876998     0.100000
AU        0.654650    0.932286    0.932554     0.100000
AU        0.710205    0.876731    0.932554     0.100000
AU        0.710205    0.932286    0.876998     0.100000
AU        0.765761    0.876731    0.876998     0.100000
AU        0.765761    0.932286    0.932554     0.100000
AU        0.821316    0.876731    0.932554     0.100000
AU        0.821316    0.932286    0.876998     0.100000
AU        0.876872    0.876731    0.876998     0.100000
AU        0.876872    0.932286    0.932554     0.100000
AU        0.932427    0.876731    0.932554     0.100000
AU        0.932427    0.932286    0.876998     0.100000
AU        0.987983    0.876731    0.876998     0.100000
AU        0.987983    0.932286    0.932554     0.100000
AU        1.043539    0.876731    0.932554     0.100000
AU        1.043539    0.932286    0.876998     0.100000
AU        1.099094    0.876731    0.876998     0.100000
AU        0.487983    0.987842    0.932554     0.100000
AU        0.487983    1.043397    0.876998     0.100000
AU        0.543539    0.987842    0.876998     0.100000
AU        0.599094    0.987842    0.932554     0.100000
AU        0.599094    1.043397    0.876998     0.100000
AU        0.654650    0.987842    0.876998     0.100000
AU        0.654650    1.043397    0.932554     0.100000
AU        0.710205    0.987842    0.932554     0.100000
AU        0.710205    1.043397    0.876998     0.100000
AU        0.765761    0.987842    0.876998     0.100000
AU        0.765761    1.043397    0.932554     0.100000
AU        0.821316    0.987842    0.932554     0.100000
AU        0.821316    1.043397    0.876998     0.100000
AU        0.876872    0.987842    0.876998     0.100000
AU        0.876872    1.043397    0.932554     0.100000
AU        0.932427    0.987842    0.932554     0.100000
AU        0.932427    1.043397    0.876998     0.100000
AU        0.987983    0.987842    0.876998     0.100000
AU        1.043539    0.987842    0.932554     0.100000
AU        1.043539    1.043397    0.876998     0.100000
AU        0.599094    1.098953    0.932554     0.100000
AU        0.654650    1.098953    0.876998     0.100000
AU        0.710205    1.154508    0.876998     0.100000
AU        0.765761    1.098953    0.876998     0.100000
AU        0.821316    1.154508    0.876998     0.100000
AU        0.876872    1.098953    0.876998     0.100000
AU        0.932427    1.098953    0.932554     0.100000
AU        0.599094    0.487842    0.988109     0.100000
AU        0.710205    0.487842    0.988109     0.100000
AU        0.765761    0.432286    0.988109     0.100000
AU        0.821316    0.487842    0.988109     0.100000
AU        0.932427    0.487842    0.988109     0.100000
AU        0.487983    0.598953    0.988109     0.100000
AU        0.543539    0.543397    0.988109     0.100000
AU        0.599094    0.543397    1.043665     0.100000
AU        0.599094    0.598953    0.988109     0.100000
AU        0.654650    0.543397    0.988109     0.100000
AU        0.654650    0.598953    1.043665     0.100000
AU        0.710205    0.543397    1.043665     0.100000
AU        0.710205    0.598953    0.988109     0.100000
AU        0.765761    0.543397    0.988109     0.100000
AU        0.765761    0.598953    1.043665     0.100000
AU        0.821316    0.543397    1.043665     0.100000
AU        0.821316    0.598953    0.988109     0.100000
AU        0.876872    0.543397    0.988109     0.100000
AU        0.876872    0.598953    1.043665     0.100000
AU        0.932427    0.543397    1.043665     0.100000
AU        0.932427    0.598953    0.988109     0.100000
AU        0.987983    0.543397    0.988109     0.100000
AU        1.043539    0.598953    0.988109     0.100000
AU        0.487983    0.654508    1.043665     0.100000
AU        0.487983    0.710064    0.988109     0.100000
AU        0.543539    0.654508    0.988109     0.100000
AU        0.599094    0.654508    1.043665     0.100000
AU        0.599094    0.710064    0.988109     0.100000
AU        0.654650    0.654508    0.988109     0.100000
AU        0.654650    0.710064    1.043665     0.100000
AU        0.710205    0.654508    1.043665     0.100000
AU        0.710205    0.710064    0.988109     0.100000
AU        0.765761    0.654508    0.988109     0.100000
AU        0.765761    0.710064    1.043665     0.100000
AU        0.821316    0.654508    1.043665     0.100000
AU        0.821316    0.710064    0.988109     0.100000
AU        0.876872    0.654508    0.988109     0.100000
AU        0.876872    0.710064    1.043665     0.100000
AU        0.932427    0.654508    1.043665     0.100000
AU        0.932427    0.710064    0.988109     0.100000
AU        0.987983    0.654508    0.988109     0.100000
AU        1.043539    0.654508    1.043665     0.100000
AU        1.043539    0.710064    0.988109     0.100000
AU        0.432427    0.765620    0.988109     0.100000
AU        0.487983    0.765620    1.043665     0.100000
AU        0.487983    0.821175    0.988109     0.100000
AU        0.543539    0.765620    0.988109     0.100000
AU        0.599094    0.765620    1.043665     0.100000
AU        0.599094    0.821175    0.988109     0.100000
AU        0.654650    0.765620    0.988109     0.100000
AU        0.654650    0.821175    1.043665     0.100000
AU        0.710205    0.765620    1.043665     0.100000
AU        0.710205    0.821175    0.988109     0.100000
AU        0.765761    0.765620    0.988109     0.100000
AU        0.765761    0.821175    1.043665     0.100000
AU        0.821316    0.765620    1.043665     0.100000
AU        0.821316    0.821175    0.988109     0.100000
AU        0.876872    0.765620    0.988109     0.100000
AU        0.876872    0.821175    1.043665     0.100000
AU        0.932427    0.765620    1.043665     0.100000
AU        0.932427    0.821175    0.988109     0.100000
AU        0.987983    0.765620    0.988109     0.100000
AU        1.043539    0.765620    1.043665     0.100000
AU        1.043539    0.821175    0.988109     0.100000
AU        1.099094    0.765620    0.988109     0.100000
AU        0.487983    0.876731    1.043665     0.100000
AU        0.487983    0.932286    0.988109     0.100000
AU        0.543539    0.876731    0.988109     0.100000
AU        0.599094    0.876731    1.043665     0.100000
AU        0.599094    0.932286    0.988109     0.100000
AU        0.654650    0.876731    0.988109     0.100000
AU        0.654650    0.932286    1.043665     0.100000
AU        0.710205    0.876731    1.043665     0.100000
AU        0.710205    0.932286    0.988109     0.100000
AU        0.765761    0.876731    0.988109     0.100000
AU        0.765761    0.932286    1.043665     0.100000
AU        0.821316    0.876731    1.043665     0.100000
AU        0.821316    0.932286    0.988109     0.100000
AU        0.876872    0.876731    0.988109     0.100000
AU        0.876872    0.932286    1.043665     0.100000
AU        0.932427    0.876731    1.043665     0.100000
AU        0.932427    0.932286    0.988109     0.100000
AU        0.987983    0.876731    0.988109     0.100000
AU        1.043539    0.876731    1.043665     0.100000
AU        1.043539    0.932286    0.988109     0.100000
AU        0.543539    0.987842    0.988109     0.100000
AU        0.599094    0.987842    1.043665     0.100000
AU        0.599094    1.043397    0.988109     0.100000
AU        0.654650    0.987842    0.988109     0.100000
AU        0.710205    0.987842    1.043665     0.100000
AU        0.710205    1.043397    0.988109     0.100000
AU        0.765761    0.987842    0.988109     0.100000
AU        0.821316    0.987842    1.043665     0.100000
AU        0.821316    1.043397    0.988109     0.100000
AU        0.876872    0.987842    0.988109     0.100000
AU        0.932427    0.987842    1.043665     0.100000
AU        0.932427    1.043397    0.988109     0.100000
AU        0.987983    0.987842    0.988109     0.100000
AU        0.765761    1.098953    0.988109     0.100000
AU        0.599094    0.598953    1.099221     0.100000
AU        0.765761    0.543397    1.099221     0.100000
AU        0.932427    0.598953    1.099221     0.100000
AU        0.599094    0.710064    1.099221     0.100000
AU        0.654650    0.654508    1.099221     0.100000
AU        0.710205    0.654508    1.154776     0.100000
AU        0.710205    0.710064    1.099221     0.100000
AU        0.765761    0.654508    1.099221     0.100000
AU        0.821316    0.654508    1.154776     0.100000
AU        0.821316    0.710064    1.099221     0.100000
AU        0.876872    0.654508    1.099221     0.100000
AU        0.932427    0.710064    1.099221     0.100000
AU        0.543539    0.765620    1.099221     0.100000
AU        0.599094    0.821175    1.099221     0.100000
AU        0.654650    0.765620    1.099221     0.100000
AU        0.710205    0.765620    1.154776     0.100000
AU        0.710205    0.821175    1.099221     0.100000
AU        0.765761    0.765620    1.099221     0.100000
AU        0.821316    0.765620    1.154776     0.100000
AU        0.821316    0.821175    1.099221     0.100000
AU        0.876872    0.765620    1.099221     0.100000
AU        0.932427    0.821175    1.099221     0.100000
AU        0.987983    0.765620    1.099221     0.100000
AU        0.599094    0.932286    1.099221     0.100000
AU        0.654650    0.876731    1.099221     0.100000
AU        0.710205    0.876731    1.154776     0.100000
AU        0.765761    0.876731    1.099221     0.100000
AU        0.821316    0.876731    1.154776     0.100000
AU        0.876872    0.876731    1.099221     0.100000
AU        0.932427    0.932286    1.099221     0.100000
AU        0.765761    0.987842    1.099221     0.100000
AU        0.654650    0.710064    0.376998     0.500000
S         0.637164    0.701321    0.315800     0.500000
C         0.642482    0.711878    0.269026     0.500000
C         0.616676    0.691813    0.244036     0.500000
C         0.622548    0.701490    0.204811     0.500000
C         0.596385    0.680950    0.179111     0.500000
H         0.670764    0.706365    0.262077     0.500000
H         0.639549    0.741255    0.266380     0.500000
H         0.588713    0.698102    0.251010     0.500000
H         0.620254    0.662701    0.247032     0.500000
F         0.657382    0.693661    0.194697     0.500000
F         0.617657    0.737902    0.199679     0.500000
F         0.601483    0.644921    0.184761     0.500000
F         0.562057    0.689550    0.189341     0.500000
F         0.556941    0.663996    0.012601     0.500000
F         0.556083    0.618240    0.049765     0.500000
F         0.516120    0.661394    0.055060     0.500000
F         0.570924    0.710986    0.065783     0.500000
F         0.611077    0.667133    0.060808     0.500000
C         0.600317    0.688669    0.137805     0.500000
C         0.573422    0.667330    0.113033     0.500000
C         0.577121    0.675393    0.071806     0.500000
C         0.550689    0.653990    0.046978     0.500000
F         0.539112    0.675616    0.122990     0.500000
F         0.578891    0.631418    0.117972     0.500000
F         0.594945    0.724483    0.132255     0.500000
F         0.634426    0.679974    0.127646     0.500000
AU        0.765761    0.710064    0.376998     0.500000
S         0.765761    0.700978    0.313399     0.500000
C         0.783074    0.711979    0.269733     0.500000
C         0.765747    0.691068    0.238820     0.500000
C         0.781593    0.701171    0.202577     0.500000
C         0.764133    0.679775    0.170887     0.500000
H         0.812372    0.707596    0.270690     0.500000
H         0.779833    0.741235    0.266239     0.500000
H         0.736718    0.696239    0.237969     0.500000
H         0.769504    0.662099    0.242823     0.500000
F         0.818139    0.694742    0.202264     0.500000
F         0.776869    0.737394    0.196125     0.500000
F         0.768903    0.643940    0.177892     0.500000
F         0.728014    0.686993    0.171444     0.500000
F         0.771693    0.662196    0.000000     0.500000
F         0.762616    0.616244    0.035799     0.500000
F         0.721073    0.657800    0.029903     0.500000
F         0.769011    0.709408    0.054733     0.500000
F         0.810677    0.667160    0.060992     0.500000
C         0.778749    0.687858    0.132128     0.500000
C         0.760364    0.665631    0.101139     0.500000
C         0.774721    0.674048    0.062391     0.500000
C         0.756801    0.651775    0.031473     0.500000
F         0.724348    0.672537    0.101440     0.500000
F         0.765679    0.629930    0.107558     0.500000
F         0.773696    0.723468    0.125147     0.500000
F         0.814642    0.680536    0.131581     0.500000
AU        0.876872    0.710064    0.376998     0.500000
S         0.894357    0.701321    0.315800     0.500000
C         0.922359    0.713210    0.278355     0.500000
C         0.914819    0.691812    0.244028     0.500000
C         0.939443    0.702709    0.213343     0.500000
C         0.932004    0.680824    0.178233     0.500000
H         0.950461    0.709953    0.287194     0.500000
H         0.919055    0.742338    0.273963     0.500000
H         0.886917    0.695866    0.235360     0.500000
H         0.918470    0.662989    0.249049     0.500000
F         0.974941    0.697693    0.222921     0.500000
F         0.935241    0.738757    0.205665     0.500000
F         0.936086    0.645163    0.186454     0.500000
F         0.896820    0.686644    0.169001     0.500000
F         0.985998    0.664453    0.015798     0.500000
F         0.969386    0.617997    0.048070     0.500000
F         0.929401    0.657954    0.030980     0.500000
F         0.966852    0.711236    0.067534     0.500000
F         1.006885    0.670591    0.085011     0.500000
C         0.956199    0.689669    0.144804     0.500000
C         0.947714    0.666915    0.110125     0.500000
C         0.971645    0.676083    0.076635     0.500000
C         0.963588    0.653301    0.042150     0.500000
F         0.912710    0.672428    0.100675     0.500000
F         0.952473    0.631411    0.117928     0.500000
F         0.951848    0.725094    0.136531     0.500000
F         0.991167    0.683737    0.153986     0.500000
AU        0.654650    0.821175    0.376998     0.500000
S         0.637164    0.829918    0.315800     0.500000
C         0.637218    0.857061    0.275916     0.500000
C         0.616478    0.840843    0.244295     0.500000
C         0.617664    0.864722    0.211203     0.500000
C         0.596673    0.848227    0.178734     0.500000
H         0.665577    0.862016    0.268865     0.500000
H         0.626473    0.883627    0.283494     0.500000
H         0.588220    0.836662    0.251654     0.500000
H         0.627791    0.814565    0.237168     0.500000
F         0.652795    0.870429    0.200700     0.500000
F         0.603049    0.897959    0.218799     0.500000
F         0.611413    0.815209    0.171766     0.500000
F         0.561831    0.843307    0.189637     0.500000
F         0.555115    0.880318    0.014991     0.500000
F         0.568227    0.826030    0.033871     0.500000
F         0.518554    0.852410    0.051874     0.500000
F         0.558695    0.907833    0.081789     0.500000
F         0.608751    0.880764    0.063852     0.500000
C         0.596410    0.870553    0.142919     0.500000
C         0.574970    0.852824    0.111008     0.500000
C         0.574395    0.875369    0.075374     0.500000
C         0.553415    0.857726    0.043410     0.500000
F         0.540215    0.847720    0.121546     0.500000
F         0.590001    0.820256    0.103431     0.500000
F         0.581468    0.903270    0.149894     0.500000
F         0.631069    0.875305    0.132039     0.500000
AU        0.765761    0.821175    0.376998     0.500000
S         0.765761    0.830261    0.313399     0.500000
C         0.777603    0.857171    0.275148     0.500000
C         0.765541    0.841596    0.239023     0.500000
C         0.776518    0.865236    0.207601     0.500000
C         0.764432    0.849390    0.170591     0.500000
H         0.806982    0.860993    0.276025     0.500000
H         0.766244    0.884170    0.279691     0.500000
H         0.736207    0.838545    0.238475     0.500000
H         0.777336    0.814864    0.235069     0.500000
F         0.813372    0.869532    0.206983     0.500000
F         0.761687    0.899051    0.211155     0.500000
F         0.779222    0.815794    0.167677     0.500000
F         0.727779    0.845873    0.171677     0.500000
F         0.769796    0.882191    0.001878     0.500000
F         0.775236    0.827539    0.023306     0.500000
F         0.723603    0.855907    0.027398     0.500000
F         0.756302    0.909901    0.067315     0.500000
F         0.808259    0.880831    0.063386     0.500000
C         0.774688    0.871520    0.136148     0.500000
C         0.761973    0.854461    0.099547     0.500000
C         0.771888    0.876823    0.065196     0.500000
C         0.759634    0.859831    0.028669     0.500000
F         0.725494    0.850755    0.100305     0.500000
F         0.777225    0.821299    0.096128     0.500000
F         0.759690    0.904825    0.139012     0.500000
F         0.811153    0.874878    0.135034     0.500000
AU        0.876872    0.821175    0.376998     0.500000
S         0.894357    0.829918    0.315800     0.500000
C         0.917094    0.856150    0.282297     0.500000
C         0.914621    0.840860    0.244176     0.500000
C         0.934560    0.863894    0.216999     0.500000
C         0.932292    0.848329    0.178018     0.500000
H         0.945275    0.858843    0.291077     0.500000
H         0.905979    0.883590    0.283754     0.500000
H         0.886424    0.838937    0.235729     0.500000
H         0.926007    0.813674    0.243406     0.500000
F         0.970354    0.866764    0.226356     0.500000
F         0.920632    0.898273    0.216604     0.500000
F         0.946015    0.814173    0.179019     0.500000
F         0.896594    0.846231    0.169170     0.500000
F         0.984172    0.880007    0.017165     0.500000
F         0.981530    0.825301    0.038977     0.500000
F         0.931836    0.855655    0.029157     0.500000
F         0.954623    0.908562    0.076692     0.500000
F         1.004559    0.877493    0.086753     0.500000
C         0.952292    0.869866    0.147730     0.500000
C         0.949262    0.853115    0.108966     0.500000
C         0.968919    0.874898    0.078676     0.500000
C         0.966314    0.858197    0.040108     0.500000
F         0.913814    0.850820    0.099848     0.500000
F         0.963583    0.819374    0.109608     0.500000
F         0.938371    0.903738    0.146623     0.500000
F         0.987810    0.871811    0.156499     0.500000
AU        0.654650    0.487842    0.488109     0.500000
S         0.637164    0.444128    0.444396     0.500000
C         0.649003    0.413446    0.409098     0.500000
C         0.617104    0.393280    0.392702     0.500000
C         0.628659    0.367488    0.363242     0.500000
C         0.596215    0.346660    0.346493     0.500000
H         0.669062    0.394714    0.420288     0.500000
H         0.663700    0.429044    0.388620     0.500000
H         0.597752    0.412348    0.381211     0.500000
H         0.603075    0.377851    0.413547     0.500000
F         0.652811    0.342680    0.376596     0.500000
F         0.645908    0.385914    0.336058     0.500000
F         0.579342    0.328755    0.373892     0.500000
F         0.572919    0.371797    0.332986     0.500000
F         0.559222    0.228538    0.227132     0.500000
F         0.530925    0.230719    0.278804     0.500000
F         0.523189    0.273663    0.239013     0.500000
F         0.596236    0.289056    0.241254     0.500000
F         0.603713    0.245886    0.281758     0.500000
C         0.605119    0.318951    0.315930     0.500000
C         0.571589    0.298635    0.299951     0.500000
C         0.580499    0.271263    0.269134     0.500000
C         0.547311    0.250698    0.253362     0.500000
F         0.548133    0.323387    0.286455     0.500000
F         0.555106    0.280130    0.326968     0.500000
F         0.621642    0.336912    0.288604     0.500000
F         0.628181    0.293894    0.329443     0.500000
AU        0.765761    0.487842    0.488109     0.500000
S         0.765761    0.442413    0.442681     0.500000
C         0.789850    0.415255    0.410907     0.500000
C         0.766192    0.389640    0.389062     0.500000
C         0.787945    0.367114    0.362869     0.500000
C         0.763956    0.340752    0.340585     0.500000
H         0.810604    0.400526    0.426100     0.500000
H         0.804931    0.433773    0.393349     0.500000
H         0.746112    0.404841    0.373704     0.500000
H         0.751651    0.371409    0.407104     0.500000
F         0.813389    0.347171    0.381087     0.500000
F         0.806228    0.389026    0.339169     0.500000
F         0.745894    0.319421    0.364557     0.500000
F         0.739302    0.361186    0.322375     0.500000
F         0.774064    0.219993    0.218587     0.500000
F         0.736471    0.215712    0.263797     0.500000
F         0.728420    0.257108    0.222457     0.500000
F         0.795316    0.286225    0.238424     0.500000
F         0.803024    0.244545    0.280417     0.500000
C         0.783739    0.315856    0.312836     0.500000
C         0.758459    0.289773    0.291089     0.500000
C         0.778232    0.265213    0.263085     0.500000
C         0.753290    0.238947    0.241611     0.500000
F         0.733722    0.309798    0.272866     0.500000
F         0.740961    0.267935    0.314773     0.500000
F         0.801441    0.337174    0.288866     0.500000
F         0.808151    0.295456    0.331005     0.500000
AU        0.876872    0.487842    0.488109     0.500000
S         0.894357    0.444128    0.444396     0.500000
C         0.928879    0.422718    0.418370     0.500000
C         0.915247    0.393446    0.392868     0.500000
C         0.945555    0.376026    0.371781     0.500000
C         0.931834    0.345966    0.345798     0.500000
H         0.948760    0.411974    0.437548     0.500000
H         0.943206    0.444121    0.403697     0.500000
H         0.895956    0.404785    0.373649     0.500000
H         0.901291    0.372420    0.408116     0.500000
F         0.970371    0.361013    0.394928     0.500000
F         0.963492    0.401490    0.351634     0.500000
F         0.913945    0.321108    0.366245     0.500000
F         0.907682    0.361613    0.322802     0.500000
F         0.988279    0.231734    0.230328     0.500000
F         0.944228    0.219445    0.267530     0.500000
F         0.936470    0.259290    0.224640     0.500000
F         0.992165    0.300432    0.252630     0.500000
F         0.999521    0.260229    0.296101     0.500000
C         0.961002    0.325870    0.322850     0.500000
C         0.945881    0.295825    0.297141     0.500000
C         0.975023    0.276063    0.273934     0.500000
C         0.960210    0.245898    0.248561     0.500000
F         0.921731    0.311055    0.274124     0.500000
F         0.928688    0.270585    0.317423     0.500000
F         0.978545    0.350645    0.302337     0.500000
F         0.984922    0.310210    0.345760     0.500000
AU        0.543539    0.598953    0.488109     0.500000
S         0.507196    0.571696    0.442681     0.500000
C         0.502242    0.555170    0.397627     0.500000
C         0.464864    0.540285    0.389000     0.500000
C         0.462260    0.526392    0.350700     0.500000
C         0.424188    0.510981    0.341759     0.500000
H         0.523262    0.534670    0.393574     0.500000
H         0.509589    0.577358    0.379397     0.500000
H         0.444416    0.561233    0.392633     0.500000
H         0.458285    0.518162    0.407348     0.500000
F         0.487322    0.499630    0.344983     0.500000
F         0.469721    0.553603    0.326617     0.500000
F         0.417201    0.484206    0.366055     0.500000
F         0.399889    0.538142    0.347126     0.500000
F         0.334996    0.438192    0.214029     0.500000
F         0.328292    0.421684    0.270225     0.500000
F         0.310173    0.475097    0.252729     0.500000
F         0.379864    0.492039    0.231895     0.500000
F         0.397988    0.438164    0.250034     0.500000
C         0.418553    0.495536    0.302889     0.500000
C         0.379810    0.480300    0.295195     0.500000
C         0.374115    0.465259    0.256212     0.500000
C         0.335743    0.449733    0.248484     0.500000
F         0.355332    0.507089    0.300506     0.500000
F         0.372987    0.453106    0.318816     0.500000
F         0.425249    0.522324    0.278808     0.500000
F         0.442644    0.468438    0.297643     0.500000
AU        0.710205    0.598953    0.432554     0.500000
S         0.700733    0.570535    0.375719     0.500000
C         0.716171    0.560247    0.331185     0.500000
C         0.689858    0.537873    0.308822     0.500000
C         0.704379    0.529682    0.271557     0.500000
C         0.677700    0.506676    0.248623     0.500000
H         0.742311    0.546570    0.334038     0.500000
H         0.722444    0.586048    0.318007     0.500000
H         0.664242    0.552187    0.305809     0.500000
H         0.684217    0.512312    0.322392     0.500000
F         0.736513    0.511289    0.274019     0.500000
F         0.711260    0.561189    0.253227     0.500000
F         0.671047    0.475672    0.267345     0.500000
F         0.646252    0.525697    0.246132     0.500000
F         0.661601    0.433736    0.093739     0.500000
F         0.641540    0.407832    0.142749     0.500000
F         0.615693    0.456937    0.122550     0.500000
F         0.680255    0.493859    0.129364     0.500000
F         0.706025    0.444217    0.150140     0.500000
C         0.690143    0.496322    0.209647     0.500000
C         0.662395    0.473127    0.187638     0.500000
C         0.674706    0.463160    0.148555     0.500000
C         0.647385    0.439788    0.126636     0.500000
F         0.630913    0.491754    0.185012     0.500000
F         0.656236    0.441866    0.205771     0.500000
F         0.696460    0.527232    0.191019     0.500000
F         0.721347    0.477291    0.212178     0.500000
AU        0.821316    0.598953    0.432554     0.500000
S         0.830789    0.570535    0.375719     0.500000
C         0.858516    0.563125    0.336940     0.500000
C         0.842098    0.537902    0.308880     0.500000
C         0.866778    0.532325    0.276841     0.500000
C         0.850243    0.506438    0.248146     0.500000
H         0.884559    0.552926    0.346751     0.500000
H         0.864588    0.589748    0.325408     0.500000
H         0.816515    0.548803    0.299041     0.500000
H         0.836496    0.511592    0.320951     0.500000
F         0.899272    0.518240    0.287921     0.500000
F         0.874032    0.564774    0.260396     0.500000
F         0.843038    0.474510    0.265020     0.500000
F         0.818330    0.521234    0.237207     0.500000
F         0.884762    0.434726    0.095718     0.500000
F         0.856166    0.405577    0.138241     0.500000
F         0.830308    0.451236    0.111147     0.500000
F         0.885469    0.496140    0.133924     0.500000
F         0.911174    0.449929    0.161564     0.500000
C         0.873663    0.498474    0.213952     0.500000
C         0.855888    0.472245    0.185873     0.500000
C         0.879159    0.464650    0.151535     0.500000
C         0.861793    0.438298    0.123657     0.500000
F         0.824030    0.486649    0.174802     0.500000
F         0.849344    0.440136    0.202312     0.500000
F         0.880533    0.530263    0.197082     0.500000
F         0.905332    0.483635    0.224866     0.500000
AU        0.932427    0.598953    0.432554     0.500000
S         0.958655    0.572725    0.380098     0.500000
C         0.995588    0.569280    0.349249     0.500000
C         0.989569    0.542681    0.318438     0.500000
C         1.021723    0.540589    0.293369     0.500000
C         1.015824    0.513326    0.261923     0.500000
H         1.019535    0.562146    0.365191     0.500000
H         1.001007    0.596607    0.339127     0.500000
H         0.965987    0.550566    0.302568     0.500000
H         0.984435    0.515712    0.329192     0.500000
F         1.052046    0.530356    0.312153     0.500000
F         1.028762    0.573915    0.278677     0.500000
F         1.008666    0.480517    0.277035     0.500000
F         0.985942    0.524332    0.243404     0.500000
F         1.094402    0.448550    0.123366     0.500000
F         1.060133    0.415546    0.158178     0.500000
F         1.036256    0.458154    0.124984     0.500000
F         1.078491    0.509031    0.159707     0.500000
F         1.102155    0.465848    0.193402     0.500000
C         1.047571    0.508745    0.234494     0.500000
C         1.040370    0.480984    0.203352     0.500000
C         1.071965    0.476754    0.175743     0.500000
C         1.065124    0.448918    0.144897     0.500000
F         1.010620    0.491611    0.184725     0.500000
F         1.033975    0.448083    0.218205     0.500000
F         1.054422    0.541376    0.219308     0.500000
F         1.077230    0.497667    0.252930     0.500000
AU        0.543539    0.710064    0.488109     0.500000
S         0.503885    0.700151    0.438543     0.500000
C         0.492511    0.707280    0.392204     0.500000
C         0.457473    0.689261    0.380340     0.500000
C         0.449319    0.695877    0.340889     0.500000
C         0.413643    0.677391    0.328542     0.500000
H         0.515534    0.697845    0.376097     0.500000
H         0.491670    0.736595    0.387895     0.500000
H         0.434829    0.699426    0.396279     0.500000
H         0.459066    0.660147    0.384716     0.500000
F         0.477000    0.683138    0.319711     0.500000
F         0.446432    0.732264    0.334282     0.500000
F         0.416952    0.641385    0.335517     0.500000
F         0.386548    0.690835    0.349568     0.500000
F         0.313930    0.656157    0.190069     0.500000
F         0.322455    0.613059    0.229380     0.500000
F         0.291676    0.661157    0.244435     0.500000
F         0.351088    0.703937    0.229670     0.500000
F         0.382093    0.655141    0.214912     0.500000
C         0.402737    0.682196    0.288056     0.500000
C         0.366651    0.663065    0.276914     0.500000
C         0.355591    0.668245    0.236550     0.500000
C         0.319907    0.648989    0.225195     0.500000
F         0.339440    0.676180    0.297711     0.500000
F         0.370050    0.627088    0.283083     0.500000
F         0.399192    0.718030    0.281295     0.500000
F         0.429648    0.668690    0.267184     0.500000
AU        0.987983    0.710064    0.488109     0.500000
S         1.027636    0.700151    0.438543     0.500000
C         1.067702    0.711694    0.414275     0.500000
C         1.074091    0.689268    0.380373     0.500000
C         1.108462    0.699917    0.361089     0.500000
C         1.115247    0.676986    0.326519     0.500000
H         1.090321    0.709281    0.433277     0.500000
H         1.066023    0.740621    0.408026     0.500000
H         1.051584    0.692486    0.361580     0.500000
H         1.075848    0.660668    0.387326     0.500000
F         1.137649    0.695927    0.383655     0.500000
F         1.107136    0.735656    0.351241     0.500000
F         1.116251    0.641644    0.336810     0.500000
F         1.086211    0.681795    0.304366     0.500000
F         1.227430    0.657671    0.197637     0.500000
F         1.200230    0.611699    0.222583     0.500000
F         1.169402    0.650319    0.190248     0.500000
F         1.189461    0.705326    0.236614     0.500000
F         1.220193    0.666028    0.269346     0.500000
C         1.150294    0.685505    0.304602     0.500000
C         1.155957    0.661694    0.270058     0.500000
C         1.190779    0.670529    0.247973     0.500000
C         1.196766    0.646704    0.213772     0.500000
F         1.127173    0.666195    0.247782     0.500000
F         1.157745    0.626514    0.280216     0.500000
F         1.149064    0.720604    0.294168     0.500000
F         1.179152    0.680579    0.326629     0.500000
AU        0.543539    0.821175    0.488109     0.500000
S         0.503885    0.831088    0.438543     0.500000
C         0.486542    0.860237    0.404235     0.500000
C         0.457249    0.843342    0.380793     0.500000
C         0.443782    0.869016    0.352049     0.500000
C         0.413969    0.851863    0.327884     0.500000
H         0.509653    0.869135    0.387950     0.500000
H         0.476843    0.884756    0.417778     0.500000
H         0.434271    0.835206    0.397404     0.500000
H         0.467611    0.819155    0.367492     0.500000
F         0.471799    0.879713    0.330194     0.500000
F         0.429867    0.899650    0.367669     0.500000
F         0.428210    0.821427    0.312824     0.500000
F         0.386291    0.841960    0.350085     0.500000
F         0.311860    0.887664    0.194241     0.500000
F         0.336225    0.834491    0.201626     0.500000
F         0.294437    0.853305    0.238871     0.500000
F         0.337221    0.911580    0.257619     0.500000
F         0.379455    0.892128    0.220229     0.500000
C         0.398307    0.875970    0.296986     0.500000
C         0.368406    0.857507    0.273377     0.500000
C         0.352500    0.881782    0.242781     0.500000
C         0.322998    0.863464    0.218965     0.500000
F         0.340691    0.847453    0.295189     0.500000
F         0.382647    0.827587    0.257692     0.500000
F         0.383911    0.906084    0.312094     0.500000
F         0.425841    0.885683    0.274855     0.500000
AU        0.987983    0.821175    0.488109     0.500000
S         1.027636    0.831088    0.438543     0.500000
C         1.061733    0.857660    0.417122     0.500000
C         1.073866    0.843405    0.380480     0.500000
C         1.102925    0.866680    0.363730     0.500000
C         1.115574    0.852168    0.326363     0.500000
H         1.084440    0.859509    0.436082     0.500000
H         1.051196    0.885291    0.415099     0.500000
H         1.051026    0.842317    0.361846     0.500000
H         1.084394    0.816003    0.383249     0.500000
F         1.132448    0.868524    0.386137     0.500000
F         1.090571    0.901355    0.359143     0.500000
F         1.127510    0.817704    0.331439     0.500000
F         1.085955    0.851079    0.304488     0.500000
F         1.225360    0.886787    0.198625     0.500000
F         1.214000    0.831614    0.216014     0.500000
F         1.172163    0.863293    0.188931     0.500000
F         1.175595    0.914457    0.243230     0.500000
F         1.217555    0.882053    0.270604     0.500000
C         1.145864    0.874024    0.306716     0.500000
C         1.157713    0.858338    0.269221     0.500000
C         1.187688    0.880448    0.249448     0.500000
C         1.199857    0.864797    0.212298     0.500000
F         1.128425    0.857054    0.247185     0.500000
F         1.170342    0.824284    0.274206     0.500000
F         1.133783    0.908211    0.301458     0.500000
F         1.175346    0.874965    0.328445     0.500000
AU        0.543539    0.932286    0.488109     0.500000
S         0.507196    0.959543    0.442681     0.500000
C         0.485829    0.998721    0.424348     0.500000
C         0.464247    0.991805    0.390005     0.500000
C         0.447035    1.025860    0.375488     0.500000
C         0.425086    1.019019    0.340298     0.500000
H         0.507092    1.018885    0.419900     0.500000
H         0.468822    1.010145    0.445769     0.500000
H         0.442881    0.972124    0.395132     0.500000
H         0.481782    0.980647    0.369093     0.500000
F         0.473021    1.051347    0.368267     0.500000
F         0.424175    1.040498    0.400771     0.500000
F         0.448158    1.004308    0.315654     0.500000
F         0.399185    0.994069    0.348273     0.500000
F         0.329304    1.100903    0.223296     0.500000
F         0.366153    1.057300    0.208583     0.500000
F         0.317763    1.045666    0.240371     0.500000
F         0.341736    1.091822    0.293970     0.500000
F         0.390736    1.103084    0.261841     0.500000
C         0.406371    1.052516    0.322723     0.500000
C         0.384636    1.044279    0.287338     0.500000
C         0.365616    1.077711    0.270049     0.500000
C         0.344243    1.069775    0.234647     0.500000
F         0.358773    1.019402    0.294904     0.500000
F         0.407625    1.030327    0.262421     0.500000
F         0.383232    1.066905    0.347215     0.500000
F         0.432179    1.077246    0.314682     0.500000
AU        0.710205    0.932286    0.432554     0.500000
S         0.700733    0.960704    0.375719     0.500000
C         0.699060    1.000798    0.348940     0.500000
C         0.689215    0.994486    0.309490     0.500000
C         0.688505    1.029207    0.288027     0.500000
C         0.678636    1.022932    0.247652     0.500000
H         0.725453    1.014035    0.351530     0.500000
H         0.679941    1.019228    0.362109     0.500000
H         0.662642    0.981839    0.307469     0.500000
H         0.708714    0.976254    0.296973     0.500000
F         0.721603    1.045923    0.289490     0.500000
F         0.663775    1.052766    0.302499     0.500000
F         0.703321    0.999346    0.233855     0.500000
F         0.645517    1.006822    0.246894     0.500000
F         0.655667    1.107840    0.099897     0.500000
F         0.681013    1.054647    0.101790     0.500000
F         0.623606    1.060517    0.114338     0.500000
F         0.640504    1.106623    0.170611     0.500000
F         0.698464    1.100192    0.157986     0.500000
C         0.677442    1.057041    0.222826     0.500000
C         0.667426    1.049348    0.182418     0.500000
C         0.665845    1.083515    0.157750     0.500000
C         0.656246    1.076016    0.117442     0.500000
F         0.634500    1.033236    0.181290     0.500000
F         0.692349    1.026467    0.168299     0.500000
F         0.652655    1.080314    0.236474     0.500000
F         0.710436    1.072955    0.223500     0.500000
AU        0.821316    0.932286    0.432554     0.500000
S         0.830789    0.960704    0.375719     0.500000
C         0.841405    1.000202    0.350132     0.500000
C         0.841455    0.994543    0.309376     0.500000
C         0.850904    1.028681    0.289079     0.500000
C         0.851179    1.023046    0.247425     0.500000
H         0.867701    1.009926    0.359748     0.500000
H         0.822085    1.021195    0.358177     0.500000
H         0.814915    0.985437    0.300274     0.500000
H         0.860994    0.973708    0.302064     0.500000
F         0.884362    1.040960    0.299416     0.500000
F         0.826547    1.055513    0.297006     0.500000
F         0.875313    0.996205    0.240137     0.500000
F         0.817596    1.011382    0.237773     0.500000
F         0.878828    1.107642    0.100293     0.500000
F         0.895639    1.051638    0.107808     0.500000
F         0.838221    1.065163    0.105046     0.500000
F         0.845718    1.109643    0.164571     0.500000
F         0.903613    1.095489    0.167393     0.500000
C         0.860962    1.056582    0.223744     0.500000
C         0.860919    1.049559    0.181994     0.500000
C         0.870298    1.083207    0.158366     0.500000
C         0.870654    1.076324    0.116825     0.500000
F         0.827617    1.037863    0.172036     0.500000
F         0.885457    1.023381    0.174470     0.500000
F         0.836728    1.083124    0.230855     0.500000
F         0.894421    1.068066    0.233278     0.500000
AU        0.932427    0.932286    0.432554     0.500000
S         0.958655    0.958514    0.380098     0.500000
C         0.979795    0.996065    0.358406     0.500000
C         0.988975    0.989840    0.318782     0.500000
C         1.007072    1.022289    0.301863     0.500000
C         1.016688    1.016047    0.261422     0.500000
H         1.003976    1.002694    0.374212     0.500000
H         0.961779    1.019347    0.361871     0.500000
H         0.964511    0.983862    0.303424     0.500000
H         1.007045    0.966699    0.316083     0.500000
F         1.038284    1.030603    0.320132     0.500000
F         0.984936    1.051972    0.304088     0.500000
F         1.038454    0.986392    0.259764     0.500000
F         0.985264    1.008370    0.243797     0.500000
F         1.088925    1.094518    0.126541     0.500000
F         1.096565    1.037014    0.137055     0.500000
F         1.043560    1.057312    0.120750     0.500000
F         1.041803    1.101439    0.180979     0.500000
F         1.095177    1.080461    0.197448     0.500000
C         1.035849    1.047809    0.241291     0.500000
C         1.045014    1.040226    0.200660     0.500000
C         1.063786    1.072147    0.180485     0.500000
C         1.073302    1.064659    0.140155     0.500000
F         1.013931    1.032479    0.182805     0.500000
F         1.067306    1.011176    0.198880     0.500000
F         1.013992    1.077177    0.242749     0.500000
F         1.067159    1.055320    0.258769     0.500000
AU        0.654650    1.043397    0.488109     0.500000
S         0.637164    1.087111    0.444396     0.500000
C         0.622682    1.131871    0.433704     0.500000
C         0.616114    1.138489    0.393628     0.500000
C         0.604242    1.176811    0.386069     0.500000
C         0.597655    1.183808    0.345147     0.500000
H         0.643131    1.150395    0.444530     0.500000
H         0.598320    1.137163    0.449739     0.500000
H         0.595291    1.120207    0.383512     0.500000
H         0.640759    1.133234    0.378318     0.500000
F         0.629875    1.200826    0.398037     0.500000
F         0.572864    1.184393    0.404343     0.500000
F         0.628989    1.175931    0.327480     0.500000
F         0.571790    1.160046    0.334042     0.500000
F         0.550094    1.307584    0.235666     0.500000
F         0.591645    1.268044    0.222040     0.500000
F         0.535361    1.251065    0.227633     0.500000
F         0.535089    1.274888    0.298417     0.500000
F         0.592082    1.291574    0.292631     0.500000
C         0.585582    1.222738    0.334194     0.500000
C         0.579328    1.228464    0.292716     0.500000
C         0.566868    1.267267    0.281877     0.500000
C         0.560942    1.273251    0.240619     0.500000
F         0.553650    1.204901    0.281297     0.500000
F         0.610657    1.221398    0.275037     0.500000
F         0.554258    1.230368    0.351598     0.500000
F         0.611396    1.246322    0.345134     0.500000
AU        0.765761    1.043397    0.488109     0.500000
S         0.765761    1.088826    0.442681     0.500000
C         0.762497    1.135326    0.430249     0.500000
C         0.765163    1.142327    0.389789     0.500000
C         0.762569    1.182068    0.380812     0.500000
C         0.765453    1.189428    0.339527     0.500000
H         0.783655    1.149770    0.445156     0.500000
H         0.736987    1.145510    0.441393     0.500000
H         0.743555    1.128207    0.375513     0.500000
H         0.790812    1.132139    0.379413     0.500000
F         0.789553    1.200922    0.397941     0.500000
F         0.730318    1.195890    0.392846     0.500000
F         0.797488    1.175336    0.328075     0.500000
F         0.738128    1.170883    0.323205     0.500000
F         0.764577    1.317954    0.225295     0.500000
F         0.799573    1.270908    0.219177     0.500000
F         0.741070    1.265186    0.213512     0.500000
F         0.731770    1.289947    0.283357     0.500000
F         0.790937    1.295241    0.288964     0.500000
C         0.763436    1.229740    0.327193     0.500000
C         0.766502    1.235779    0.285402     0.500000
C         0.764066    1.276042    0.273101     0.500000
C         0.767455    1.282275    0.231595     0.500000
F         0.739457    1.217386    0.268811     0.500000
F         0.798691    1.222482    0.273952     0.500000
F         0.731413    1.243582    0.338383     0.500000
F         0.790708    1.248117    0.343339     0.500000
AU        0.876872    1.043397    0.488109     0.500000
S         0.894357    1.087111    0.444396     0.500000
C         0.902558    1.133127    0.432448     0.500000
C         0.914257    1.138719    0.393398     0.500000
C         0.921138    1.178039    0.384840     0.500000
C         0.933274    1.183927    0.345028     0.500000
H         0.922828    1.143507    0.451418     0.500000
H         0.877827    1.148238    0.438664     0.500000
H         0.893495    1.128755    0.374965     0.500000
H         0.938975    1.123591    0.387961     0.500000
F         0.947435    1.191668    0.407195     0.500000
F         0.890448    1.198035    0.390701     0.500000
F         0.963592    1.163719    0.339691     0.500000
F         0.906553    1.170682    0.323406     0.500000
F         0.979150    1.308039    0.235210     0.500000
F         1.004948    1.255030    0.235054     0.500000
F         0.948643    1.260569    0.218130     0.500000
F         0.931018    1.287971    0.285334     0.500000
F         0.987890    1.281883    0.302321     0.500000
C         0.941465    1.223633    0.333300     0.500000
C         0.953620    1.228179    0.293002     0.500000
C         0.961392    1.267919    0.281225     0.500000
C         0.973841    1.272599    0.241271     0.500000
F         0.927249    1.215025    0.271172     0.500000
F         0.984238    1.208723    0.287712     0.500000
F         0.911161    1.243588    0.338378     0.500000
F         0.968137    1.236720    0.354737     0.500000
AU        0.543539    0.487842    0.599221     0.500000
S         0.507196    0.442413    0.571964     0.500000
C         0.503547    0.399850    0.549546     0.500000
C         0.465103    0.389189    0.539474     0.500000
C         0.463537    0.352868    0.520900     0.500000
C         0.424311    0.341726    0.510693     0.500000
H         0.516104    0.379654    0.567236     0.500000
H         0.521098    0.401083    0.525691     0.500000
H         0.453298    0.409308    0.521419     0.500000
H         0.448265    0.387967    0.563647     0.500000
F         0.477805    0.326562    0.542842     0.500000
F         0.483898    0.353392    0.489897     0.500000
F         0.404510    0.341580    0.541739     0.500000
F         0.410942    0.367942    0.488534     0.500000
F         0.335469    0.214664    0.436324     0.500000
F         0.314767    0.244160    0.482981     0.500000
F         0.320049    0.271300    0.430799     0.500000
F         0.393460    0.257561    0.430956     0.500000
F         0.387918    0.230558    0.483873     0.500000
C         0.419483    0.304395    0.491607     0.500000
C         0.379513    0.294362    0.481906     0.500000
C         0.374793    0.257237    0.462468     0.500000
C         0.335066    0.246924    0.453059     0.500000
F         0.365854    0.320308    0.459879     0.500000
F         0.359815    0.293423    0.512811     0.500000
F         0.438988    0.304747    0.460595     0.500000
F         0.432665    0.278341    0.513735     0.500000
AU        0.710205    0.432286    0.599221     0.500000
S         0.700733    0.375451    0.570803     0.500000
C         0.718213    0.333415    0.554840     0.500000
C         0.690232    0.309012    0.537102     0.500000
C         0.706375    0.273731    0.524401     0.500000
C         0.677893    0.248591    0.506409     0.500000
H         0.731117    0.320079    0.577951     0.500000
H         0.740443    0.339755    0.536285     0.500000
H         0.678133    0.322532    0.513843     0.500000
H         0.668546    0.302957    0.556139     0.500000
F         0.721630    0.255547    0.552926     0.500000
F         0.733431    0.280077    0.499830     0.500000
F         0.651200    0.242802    0.531106     0.500000
F         0.663537    0.267007    0.477917     0.500000
F         0.662342    0.094377    0.431946     0.500000
F         0.620389    0.116611    0.466891     0.500000
F         0.631138    0.141173    0.414274     0.500000
F         0.701517    0.155103    0.435026     0.500000
F         0.690276    0.130610    0.488260     0.500000
C         0.691598    0.211158    0.492547     0.500000
C         0.661931    0.186803    0.474684     0.500000
C         0.675766    0.149584    0.460482     0.500000
C         0.646325    0.125072    0.443002     0.500000
F         0.647367    0.204870    0.446286     0.500000
F         0.635637    0.180308    0.499391     0.500000
F         0.717946    0.217032    0.467777     0.500000
F         0.705741    0.192822    0.520937     0.500000
AU        0.821316    0.432286    0.599221     0.500000
S         0.830789    0.375451    0.570803     0.500000
C         0.860557    0.339715    0.557990     0.500000
C         0.842472    0.309170    0.537181     0.500000
C         0.868774    0.279548    0.527310     0.500000
C         0.850435    0.248165    0.506196     0.500000
H         0.873365    0.329807    0.582815     0.500000
H         0.882587    0.351956    0.542385     0.500000
H         0.830406    0.319468    0.512311     0.500000
H         0.820826    0.297337    0.553329     0.500000
F         0.884389    0.265480    0.557892     0.500000
F         0.896203    0.293159    0.506371     0.500000
F         0.823192    0.235185    0.527297     0.500000
F         0.835616    0.262691    0.475759     0.500000
F         0.885502    0.096553    0.433034     0.500000
F         0.835015    0.106462    0.461816     0.500000
F         0.845753    0.133889    0.410632     0.500000
F         0.906731    0.165333    0.440141     0.500000
F         0.895425    0.137834    0.491872     0.500000
C         0.875117    0.215851    0.494893     0.500000
C         0.855424    0.184915    0.473739     0.500000
C         0.880219    0.152846    0.462112     0.500000
C         0.860733    0.121810    0.441371     0.500000
F         0.840484    0.199048    0.443374     0.500000
F         0.828745    0.171356    0.494915     0.500000
F         0.902019    0.228824    0.473673     0.500000
F         0.889726    0.201348    0.525200     0.500000
AU        0.932427    0.432286    0.599221     0.500000
S         0.958655    0.379830    0.572993     0.500000
C         0.997472    0.352505    0.564385     0.500000
C         0.989914    0.318815    0.542004     0.500000
C         1.023565    0.296546    0.535809     0.500000
C         1.016001    0.261987    0.513107     0.500000
H         1.009204    0.345607    0.590715     0.500000
H         1.017620    0.369920    0.551367     0.500000
H         0.978808    0.326271    0.515713     0.500000
H         0.969971    0.301882    0.555601     0.500000
F         1.038309    0.286202    0.568254     0.500000
F         1.049225    0.316669    0.518126     0.500000
F         0.990349    0.242519    0.530964     0.500000
F         1.001896    0.272966    0.480896     0.500000
F         1.095086    0.124375    0.446946     0.500000
F         1.040611    0.121411    0.469291     0.500000
F         1.050511    0.151369    0.419372     0.500000
F         1.098115    0.196131    0.455540     0.500000
F         1.087620    0.165958    0.505934     0.500000
C         1.048913    0.236736    0.505336     0.500000
C         1.039942    0.202285    0.482424     0.500000
C         1.072943    0.177305    0.474342     0.500000
C         1.064146    0.142800    0.451865     0.500000
F         1.025807    0.212851    0.450276     0.500000
F         1.014963    0.182390    0.500432     0.500000
F         1.074253    0.256118    0.487320     0.500000
F         1.062826    0.225732    0.537392     0.500000
AU        0.432427    0.598953    0.599221     0.500000
S         0.379971    0.572725    0.572993     0.500000
C         0.359855    0.544112    0.539764     0.500000
C         0.318794    0.542186    0.541608     0.500000
C         0.303226    0.517397    0.513151     0.500000
C         0.261290    0.515165    0.514997     0.500000
H         0.372104    0.517303    0.542877     0.500000
H         0.369116    0.553721    0.513296     0.500000
H         0.307111    0.569013    0.537876     0.500000
H         0.310290    0.532390    0.568086     0.500000
F         0.316920    0.483128    0.517043     0.500000
F         0.312749    0.529130    0.479274     0.500000
F         0.252386    0.503703    0.548840     0.500000
F         0.248340    0.549363    0.510552     0.500000
F         0.126970    0.439870    0.438464     0.500000
F         0.128895    0.448644    0.496729     0.500000
F         0.124280    0.494676    0.460026     0.500000
F         0.188932    0.475644    0.427842     0.500000
F         0.193562    0.429448    0.465320     0.500000
C         0.242317    0.489972    0.486952     0.500000
C         0.200107    0.488592    0.489908     0.500000
C         0.181175    0.463725    0.461596     0.500000
C         0.139212    0.461947    0.464611     0.500000
F         0.186866    0.522518    0.485586     0.500000
F         0.191070    0.476467    0.523305     0.500000
F         0.251006    0.501630    0.453323     0.500000
F         0.255123    0.455949    0.491498     0.500000
AU        0.987983    0.543397    0.543665     0.500000
S         1.025075    0.506305    0.506573     0.500000
C         1.068803    0.494389    0.490040     0.500000
C         1.068861    0.463469    0.462892     0.500000
C         1.106512    0.454294    0.450049     0.500000
C         1.106785    0.422603    0.422435     0.500000
H         1.085560    0.488089    0.513663     0.500000
H         1.080725    0.518976    0.478551     0.500000
H         1.052531    0.470487    0.439351     0.500000
H         1.057066    0.439319    0.475015     0.500000
F         1.127992    0.444897    0.478813     0.500000
F         1.122170    0.483834    0.433978     0.500000
F         1.090959    0.393654    0.438791     0.500000
F         1.085747    0.432767    0.393956     0.500000
F         1.214144    0.328243    0.326837     0.500000
F         1.166740    0.304859    0.352944     0.500000
F         1.160143    0.342963    0.308313     0.500000
F         1.196358    0.395255    0.347453     0.500000
F         1.202523    0.356692    0.392564     0.500000
C         1.144430    0.410613    0.407593     0.500000
C         1.143316    0.378598    0.379914     0.500000
C         1.180919    0.366933    0.364805     0.500000
C         1.180044    0.334865    0.337529     0.500000
F         1.122383    0.388359    0.351427     0.500000
F         1.128275    0.349447    0.396285     0.500000
F         1.159966    0.439401    0.391093     0.500000
F         1.165274    0.400384    0.435933     0.500000
AU        1.099094    0.598953    0.599221     0.500000
S         1.151550    0.572725    0.572993     0.500000
C         1.199483    0.571929    0.567580     0.500000
C         1.213225    0.542683    0.542106     0.500000
C         1.253912    0.543012    0.538767     0.500000
C         1.268148    0.513081    0.512914     0.500000
H         1.211198    0.569083    0.594657     0.500000
H         1.207636    0.598951    0.558527     0.500000
H         1.201723    0.546325    0.515188     0.500000
H         1.204939    0.516097    0.551793     0.500000
F         1.269598    0.538124    0.572040     0.500000
F         1.265500    0.575857    0.526001     0.500000
F         1.256195    0.480763    0.525899     0.500000
F         1.252629    0.518810    0.479999     0.500000
F         1.414140    0.449458    0.448052     0.500000
F         1.368805    0.414823    0.462908     0.500000
F         1.364124    0.451559    0.416908     0.500000
F         1.376717    0.509772    0.461970     0.500000
F         1.380986    0.472475    0.508347     0.500000
C         1.309964    0.510732    0.507711     0.500000
C         1.322983    0.480161    0.481477     0.500000
C         1.364747    0.478125    0.475996     0.500000
C         1.377909    0.447547    0.450211     0.500000
F         1.307661    0.485523    0.448591     0.500000
F         1.311815    0.447830    0.494668     0.500000
F         1.321715    0.542830    0.494522     0.500000
F         1.325347    0.504897    0.540446     0.500000
AU        0.432427    0.710064    0.599221     0.500000
S         0.375593    0.700592    0.570803     0.500000
C         0.348093    0.701818    0.531183     0.500000
C         0.309094    0.690156    0.537198     0.500000
C         0.287150    0.691388    0.502794     0.500000
C         0.247317    0.679334    0.508712     0.500000
H         0.361450    0.684878    0.510857     0.500000
H         0.349664    0.729380    0.520389     0.500000
H         0.296117    0.707684    0.557059     0.500000
H         0.308261    0.662633    0.547738     0.500000
F         0.302308    0.669364    0.477061     0.500000
F         0.286931    0.725785    0.488908     0.500000
F         0.248116    0.645275    0.522688     0.500000
F         0.232729    0.701880    0.533929     0.500000
F         0.099494    0.656637    0.423849     0.500000
F         0.116716    0.620288    0.466949     0.500000
F         0.101196    0.675853    0.479560     0.500000
F         0.155356    0.701251    0.434844     0.500000
F         0.171103    0.645018    0.422595     0.500000
C         0.222214    0.679253    0.474785     0.500000
C         0.182392    0.666881    0.482093     0.500000
C         0.157249    0.667213    0.448239     0.500000
C         0.117690    0.654595    0.455244     0.500000
F         0.167564    0.689095    0.507225     0.500000
F         0.182961    0.632687    0.495303     0.500000
F         0.221260    0.713235    0.461126     0.500000
F         0.236686    0.656715    0.449787     0.500000
AU        1.099094    0.710064    0.599221     0.500000
S         1.155929    0.700592    0.570803     0.500000
C         1.202159    0.713057    0.564899     0.500000
C         1.222537    0.690222    0.537396     0.500000
C         1.261544    0.701691    0.533703     0.500000
C         1.282571    0.678354    0.505772     0.500000
H         1.214936    0.711797    0.591613     0.500000
H         1.202529    0.741783    0.557597     0.500000
H         1.209756    0.692295    0.510891     0.500000
H         1.221940    0.661840    0.545359     0.500000
F         1.278860    0.699153    0.566425     0.500000
F         1.263562    0.737168    0.523056     0.500000
F         1.280066    0.643272    0.516678     0.500000
F         1.265200    0.681724    0.473463     0.500000
F         1.438459    0.660496    0.435426     0.500000
F         1.404476    0.614090    0.448357     0.500000
F         1.388884    0.650988    0.404965     0.500000
F         1.386641    0.707536    0.453701     0.500000
F         1.401996    0.669965    0.497436     0.500000
C         1.323332    0.687668    0.500031     0.500000
C         1.343349    0.663412    0.471687     0.500000
C         1.383968    0.673030    0.465690     0.500000
C         1.404136    0.648778    0.437793     0.500000
F         1.326267    0.666481    0.439380     0.500000
F         1.341609    0.628516    0.482790     0.500000
F         1.325696    0.722497    0.488909     0.500000
F         1.340596    0.684171    0.532155     0.500000
AU        0.432427    0.821175    0.599221     0.500000
S         0.375593    0.830648    0.570803     0.500000
C         0.342390    0.860814    0.553055     0.500000
C         0.308880    0.842263    0.538020     0.500000
C         0.281859    0.868973    0.523084     0.500000
C         0.247629    0.850188    0.507515     0.500000
H         0.355830    0.877290    0.532405     0.500000
H         0.335497    0.879838    0.574717     0.500000
H         0.295584    0.826491    0.559104     0.500000
H         0.316426    0.823661    0.516425     0.500000
F         0.297338    0.889230    0.496120     0.500000
F         0.271102    0.892574    0.549605     0.500000
F         0.258874    0.826750    0.481434     0.500000
F         0.232484    0.830707    0.534867     0.500000
F         0.097516    0.885490    0.431434     0.500000
F         0.129874    0.838530    0.416493     0.500000
F         0.103834    0.840868    0.469444     0.500000
F         0.142106    0.902919    0.485655     0.500000
F         0.168583    0.900093    0.432259     0.500000
C         0.217981    0.875288    0.491019     0.500000
C         0.184069    0.855128    0.475662     0.500000
C         0.154295    0.880283    0.459566     0.500000
C         0.120644    0.860386    0.443918     0.500000
F         0.168759    0.835563    0.502640     0.500000
F         0.194999    0.832296    0.449143     0.500000
F         0.206659    0.898373    0.517119     0.500000
F         0.233049    0.894543    0.463734     0.500000
AU        1.099094    0.821175    0.599221     0.500000
S         1.155929    0.830648    0.570803     0.500000
C         1.196456    0.856420    0.566237     0.500000
C         1.222323    0.842455    0.537446     0.500000
C         1.256253    0.865020    0.534945     0.500000
C         1.282883    0.850793    0.505699     0.500000
H         1.209317    0.857115    0.592932     0.500000
H         1.188361    0.884436    0.560922     0.500000
H         1.209223    0.842520    0.511017     0.500000
H         1.230105    0.814655    0.543443     0.500000
F         1.273890    0.865406    0.567592     0.500000
F         1.247734    0.900186    0.526771     0.500000
F         1.290825    0.815844    0.514153     0.500000
F         1.264956    0.851156    0.473520     0.500000
F         1.436481    0.884005    0.435890     0.500000
F         1.417634    0.828938    0.445269     0.500000
F         1.391522    0.862567    0.404346     0.500000
F         1.373391    0.912533    0.456810     0.500000
F         1.399476    0.878170    0.498027     0.500000
C         1.319099    0.871953    0.501024     0.500000
C         1.345026    0.856584    0.471294     0.500000
C         1.381014    0.878011    0.466383     0.500000
C         1.407090    0.862659    0.437100     0.500000
F         1.327462    0.856743    0.439100     0.500000
F         1.353646    0.822022    0.479965     0.500000
F         1.311094    0.906634    0.492336     0.500000
F         1.336959    0.871451    0.533009     0.500000
AU        0.432427    0.932286    0.599221     0.500000
S         0.379971    0.958514    0.572993     0.500000
C         0.344062    0.990676    0.574899     0.500000
C         0.318200    0.989187    0.542929     0.500000
C         0.288575    1.017135    0.545745     0.500000
C         0.262154    1.015880    0.513075     0.500000
H         0.356545    1.017433    0.577492     0.500000
H         0.329889    0.986335    0.600568     0.500000
H         0.305634    0.962558    0.541161     0.500000
H         0.332900    0.993768    0.517784     0.500000
F         0.303158    1.051204    0.547659     0.500000
F         0.268922    1.011959    0.576777     0.500000
F         0.282174    1.020841    0.482569     0.500000
F         0.247662    0.982028    0.512059     0.500000
F         0.121493    1.092600    0.450649     0.500000
F         0.165327    1.074407    0.415677     0.500000
F         0.131584    1.034921    0.443777     0.500000
F         0.152244    1.063841    0.509464     0.500000
F         0.186584    1.103360    0.480845     0.500000
C         0.230595    1.043902    0.513030     0.500000
C         0.204751    1.041604    0.479577     0.500000
C         0.172997    1.069353    0.479791     0.500000
C         0.147390    1.067454    0.446416     0.500000
F         0.190176    1.007977    0.478220     0.500000
F         0.224401    1.047282    0.449153     0.500000
F         0.210575    1.038696    0.543270     0.500000
F         0.245053    1.077554    0.513902     0.500000
AU        1.043539    0.932286    0.543665     0.500000
S         1.088967    0.959543    0.507322     0.500000
C         1.118557    0.996596    0.498434     0.500000
C         1.141788    0.992095    0.464772     0.500000
C         1.166507    1.024016    0.458713     0.500000
C         1.190449    1.019514    0.424457     0.500000
H         1.135212    1.000368    0.522660     0.500000
H         1.101728    1.020947    0.496862     0.500000
H         1.124733    0.988965    0.440909     0.500000
H         1.158383    0.967834    0.467083     0.500000
F         1.188803    1.028771    0.487993     0.500000
F         1.146653    1.055129    0.454995     0.500000
F         1.209748    0.988421    0.428561     0.500000
F         1.167744    1.015368    0.395747     0.500000
F         1.312226    1.100206    0.333750     0.500000
F         1.312499    1.041753    0.341413     0.500000
F         1.270714    1.067033    0.308212     0.500000
F         1.248352    1.107432    0.366913     0.500000
F         1.290383    1.081436    0.400346     0.500000
C         1.217339    1.050863    0.415774     0.500000
C         1.240872    1.045073    0.381061     0.500000
C         1.267426    1.076614    0.372204     0.500000
C         1.291174    1.070872    0.337908     0.500000
F         1.218565    1.040845    0.352259     0.500000
F         1.260731    1.014550    0.385300     0.500000
F         1.198019    1.081688    0.411428     0.500000
F         1.239986    1.054861    0.444293     0.500000
AU        0.543539    1.043397    0.599221     0.500000
S         0.507196    1.088826    0.571964     0.500000
C         0.476194    1.125538    0.576267     0.500000
C         0.464075    1.141831    0.540479     0.500000
C         0.438162    1.172944    0.545688     0.500000
C         0.425808    1.189833    0.509231     0.500000
H         0.489155    1.145821    0.593562     0.500000
H         0.453154    1.115624    0.592063     0.500000
H         0.450741    1.121384    0.523918     0.500000
H         0.487426    1.151649    0.525392     0.500000
F         0.453970    1.199579    0.566126     0.500000
F         0.407988    1.161611    0.564051     0.500000
F         0.456104    1.200694    0.491339     0.500000
F         0.409768    1.163046    0.489680     0.500000
F         0.325983    1.314546    0.445591     0.500000
F         0.377869    1.300576    0.421339     0.500000
F         0.332700    1.262645    0.418442     0.500000
F         0.329914    1.260087    0.493031     0.500000
F         0.375831    1.298096    0.495680     0.500000
C         0.399179    1.222501    0.511441     0.500000
C         0.387556    1.238598    0.474049     0.500000
C         0.360628    1.270973    0.476306     0.500000
C         0.349231    1.287345    0.439222     0.500000
F         0.371588    1.212158    0.454277     0.500000
F         0.417545    1.250164    0.456417     0.500000
F         0.368960    1.211515    0.529002     0.500000
F         0.415222    1.249167    0.530774     0.500000
AU        0.987983    1.043397    0.599221     0.500000
S         1.024326    1.088826    0.571964     0.500000
C         1.040470    1.134279    0.571023     0.500000
C         1.066319    1.142494    0.540081     0.500000
C         1.079380    1.181167    0.540754     0.500000
C         1.105943    1.189698    0.509312     0.500000
H         1.053060    1.139531    0.597336     0.500000
H         1.016661    1.151922    0.570284     0.500000
H         1.053110    1.137661    0.514152     0.500000
H         1.089822    1.124751    0.541530     0.500000
F         1.096569    1.188393    0.572838     0.500000
F         1.050638    1.204491    0.538323     0.500000
F         1.134127    1.166159    0.512060     0.500000
F         1.088124    1.182828    0.477811     0.500000
F         1.200324    1.317614    0.443750     0.500000
F         1.219468    1.261861    0.444568     0.500000
F         1.174253    1.277097    0.409770     0.500000
F         1.135401    1.299032    0.469664     0.500000
F         1.181067    1.283169    0.504637     0.500000
C         1.121431    1.228920    0.507590     0.500000
C         1.148072    1.236182    0.475499     0.500000
C         1.163194    1.275502    0.473588     0.500000
C         1.189990    1.282816    0.441939     0.500000
F         1.130662    1.229376    0.443946     0.500000
F         1.176584    1.213335    0.478514     0.500000
F         1.093333    1.252237    0.504569     0.500000
F         1.139259    1.235661    0.538878     0.500000
AU        0.710205    1.098953    0.599221     0.500000
S         0.700733    1.155788    0.570803     0.500000
C         0.683991    1.200998    0.572595     0.500000
C         0.688945    1.222347    0.537770     0.500000
C         0.674628    1.260453    0.540872     0.500000
C         0.679765    1.282474    0.505437     0.500000
H         0.697402    1.214288    0.595444     0.500000
H         0.655438    1.199368    0.580387     0.500000
H         0.674933    1.209004    0.515504     0.500000
H         0.717540    1.223738    0.530719     0.500000
F         0.691810    1.278458    0.568397     0.500000
F         0.638461    1.259970    0.549103     0.500000
F         0.715749    1.282451    0.497617     0.500000
F         0.662069    1.264368    0.478679     0.500000
F         0.650473    1.437963    0.438104     0.500000
F         0.699335    1.407306    0.425932     0.500000
F         0.646965    1.388598    0.406062     0.500000
F         0.622016    1.383509    0.476273     0.500000
F         0.675155    1.402032    0.496106     0.500000
C         0.666196    1.322437    0.505726     0.500000
C         0.671994    1.343503    0.469463     0.500000
C         0.658044    1.383299    0.469676     0.500000
C         0.664047    1.404523    0.433807     0.500000
F         0.654541    1.325704    0.442564     0.500000
F         0.707862    1.344233    0.461919     0.500000
F         0.630336    1.322333    0.513231     0.500000
F         0.683919    1.340441    0.532259     0.500000
AU        0.821316    1.098953    0.599221     0.500000
S         0.830789    1.155788    0.570803     0.500000
C         0.826336    1.203824    0.571182     0.500000
C         0.841185    1.222532    0.537677     0.500000
C         0.837027    1.263101    0.539548     0.500000
C         0.852307    1.282401    0.505474     0.500000
H         0.839649    1.213550    0.595812     0.500000
H         0.797583    1.209835    0.575153     0.500000
H         0.827206    1.212921    0.513545     0.500000
H         0.869820    1.216293    0.534442     0.500000
F         0.854568    1.276477    0.569388     0.500000
F         0.801233    1.272213    0.542981     0.500000
F         0.887741    1.272855    0.502415     0.500000
F         0.834147    1.269075    0.476325     0.500000
F         0.873634    1.438952    0.437610     0.500000
F         0.913962    1.396403    0.431383     0.500000
F         0.861580    1.391661    0.404531     0.500000
F         0.827230    1.394479    0.470788     0.500000
F         0.880303    1.398840    0.497701     0.500000
C         0.849716    1.324518    0.504685     0.500000
C         0.865487    1.342708    0.469861     0.500000
C         0.862497    1.384763    0.468944     0.500000
C         0.878455    1.403059    0.434539     0.500000
F         0.847659    1.329613    0.440609     0.500000
F         0.900970    1.333924    0.467073     0.500000
F         0.814408    1.333903    0.507446     0.500000
F         0.867903    1.337734    0.533612     0.500000
AU        0.654650    0.376731    0.710332     0.500000
S         0.637164    0.315532    0.701589     0.500000
C         0.646251    0.268441    0.706825     0.500000
C         0.617366    0.243710    0.691107     0.500000
C         0.626233    0.204234    0.696556     0.500000
C         0.596740    0.178813    0.680715     0.500000
H         0.650101    0.263546    0.735802     0.500000
H         0.672774    0.263320    0.694619     0.500000
H         0.614354    0.248587    0.662171     0.500000
H         0.591327    0.249195    0.703805     0.500000
F         0.629909    0.196738    0.732713     0.500000
F         0.658583    0.195972    0.680394     0.500000
F         0.564848    0.187572    0.696907     0.500000
F         0.593965    0.186392    0.644773     0.500000
F         0.558308    0.012219    0.662335     0.500000
F         0.517040    0.052778    0.673625     0.500000
F         0.544630    0.052396    0.621413     0.500000
F         0.610173    0.062217    0.655846     0.500000
F         0.582006    0.062983    0.708441     0.500000
C         0.603002    0.137312    0.685147     0.500000
C         0.572566    0.112838    0.668806     0.500000
C         0.579077    0.071374    0.672899     0.500000
C         0.548733    0.046875    0.657020     0.500000
F         0.569485    0.120170    0.633005     0.500000
F         0.540867    0.120900    0.685365     0.500000
F         0.634606    0.128654    0.668760     0.500000
F         0.605619    0.129799    0.720909     0.500000
AU        0.765761    0.376731    0.710332     0.500000
S         0.765761    0.313131    0.701246     0.500000
C         0.786991    0.270203    0.707076     0.500000
C         0.766464    0.238687    0.690389     0.500000
C         0.785423    0.203032    0.696384     0.500000
C         0.764502    0.170689    0.679555     0.500000
H         0.790899    0.266373    0.736206     0.500000
H         0.814361    0.272482    0.695927     0.500000
H         0.763366    0.242726    0.661334     0.500000
H         0.739442    0.236887    0.702047     0.500000
F         0.789588    0.196612    0.732695     0.500000
F         0.819400    0.203877    0.681523     0.500000
F         0.730831    0.170446    0.694461     0.500000
F         0.761173    0.177429    0.643493     0.500000
F         0.773113    0.000000    0.660589     0.500000
F         0.722041    0.027881    0.670068     0.500000
F         0.750702    0.035222    0.618960     0.500000
F         0.809799    0.062157    0.655837     0.500000
F         0.780465    0.055028    0.707304     0.500000
C         0.781538    0.132387    0.684443     0.500000
C         0.759475    0.100704    0.667073     0.500000
C         0.776754    0.062507    0.671632     0.500000
C         0.754767    0.030822    0.654727     0.500000
F         0.755912    0.107124    0.631141     0.500000
F         0.726163    0.099839    0.682356     0.500000
F         0.814913    0.132651    0.669331     0.500000
F         0.784705    0.125668    0.720319     0.500000
AU        0.876872    0.376731    0.710332     0.500000
S         0.894357    0.315532    0.701589     0.500000
C         0.926128    0.279881    0.708459     0.500000
C         0.915509    0.244089    0.691161     0.500000
C         0.943128    0.214829    0.698069     0.500000
C         0.932359    0.178135    0.680619     0.500000
H         0.929799    0.277092    0.737738     0.500000
H         0.952280    0.289509    0.698360     0.500000
H         0.912558    0.247297    0.661987     0.500000
H         0.889543    0.235013    0.701779     0.500000
F         0.947468    0.209577    0.734547     0.500000
F         0.976167    0.224876    0.684523     0.500000
F         0.899451    0.168750    0.694218     0.500000
F         0.928728    0.183920    0.644420     0.500000
F         0.987364    0.016181    0.662901     0.500000
F         0.930343    0.029220    0.670259     0.500000
F         0.957911    0.044282    0.620254     0.500000
F         1.006101    0.085948    0.659236     0.500000
F         0.977814    0.070907    0.709573     0.500000
C         0.958884    0.145814    0.686361     0.500000
C         0.946858    0.109450    0.668322     0.500000
C         0.973601    0.077298    0.673745     0.500000
C         0.961632    0.040951    0.656174     0.500000
F         0.943083    0.114863    0.632247     0.500000
F         0.914448    0.099562    0.682317     0.500000
F         0.991509    0.155141    0.672544     0.500000
F         0.962360    0.140007    0.722367     0.500000
AU        0.543539    0.487842    0.710332     0.500000
S         0.503885    0.438275    0.700418     0.500000
C         0.495360    0.390810    0.701783     0.500000
C         0.457995    0.379866    0.688473     0.500000
C         0.452105    0.339520    0.690509     0.500000
C         0.413912    0.328168    0.677115     0.500000
H         0.499915    0.382005    0.729715     0.500000
H         0.516785    0.377698    0.686046     0.500000
H         0.454212    0.388348    0.660476     0.500000
H         0.437199    0.393093    0.704657     0.500000
F         0.456232    0.327653    0.725425     0.500000
F         0.477369    0.321784    0.669937     0.500000
F         0.389258    0.346197    0.697686     0.500000
F         0.410668    0.339765    0.642301     0.500000
F         0.314963    0.189393    0.654335     0.500000
F         0.292941    0.240780    0.673041     0.500000
F         0.313228    0.235647    0.617819     0.500000
F         0.380757    0.217673    0.644175     0.500000
F         0.360117    0.223333    0.699871     0.500000
C         0.404766    0.286986    0.678358     0.500000
C         0.366004    0.276902    0.664642     0.500000
C         0.357070    0.235698    0.665520     0.500000
C         0.318428    0.225512    0.652249     0.500000
F         0.362400    0.288367    0.629993     0.500000
F         0.341306    0.294179    0.685512     0.500000
F         0.429173    0.269174    0.657637     0.500000
F         0.407871    0.275525    0.713017     0.500000
AU        0.987983    0.487842    0.710332     0.500000
S         1.027636    0.438275    0.700418     0.500000
C         1.070551    0.417264    0.707074     0.500000
C         1.074612    0.380702    0.688640     0.500000
C         1.111248    0.364005    0.695406     0.500000
C         1.115516    0.326558    0.676793     0.500000
H         1.074701    0.415154    0.736345     0.500000
H         1.091138    0.436468    0.697800     0.500000
H         1.070967    0.383469    0.659500     0.500000
H         1.053981    0.362062    0.698451     0.500000
F         1.116881    0.359647    0.731824     0.500000
F         1.138073    0.386338    0.682848     0.500000
F         1.088558    0.304885    0.689423     0.500000
F         1.110331    0.331670    0.640683     0.500000
F         1.228463    0.198550    0.656166     0.500000
F         1.170717    0.188578    0.662600     0.500000
F         1.190954    0.214617    0.613613     0.500000
F         1.219131    0.270262    0.654693     0.500000
F         1.198217    0.243958    0.703996     0.500000
C         1.152324    0.306654    0.682292     0.500000
C         1.155310    0.269050    0.663072     0.500000
C         1.192258    0.249396    0.668259     0.500000
C         1.195287    0.211814    0.649509     0.500000
F         1.150133    0.273761    0.627072     0.500000
F         1.129001    0.247091    0.676095     0.500000
F         1.179045    0.328172    0.669436     0.500000
F         1.157376    0.301468    0.718206     0.500000
AU        0.432427    0.598953    0.710332     0.500000
S         0.375593    0.570536    0.700859     0.500000
C         0.349454    0.530311    0.695730     0.500000
C         0.309344    0.536819    0.689260     0.500000
C         0.288480    0.501936    0.685442     0.500000
C         0.247445    0.508387    0.679002     0.500000
H         0.353987    0.513899    0.719991     0.500000
H         0.361664    0.514799    0.673618     0.500000
H         0.305377    0.552684    0.664710     0.500000
H         0.297813    0.552104    0.711683     0.500000
F         0.292386    0.481194    0.715963     0.500000
F         0.301711    0.482084    0.657036     0.500000
F         0.234885    0.528289    0.707324     0.500000
F         0.244253    0.528550    0.648338     0.500000
F         0.099988    0.423362    0.654600     0.500000
F         0.102616    0.472936    0.686397     0.500000
F         0.111492    0.474725    0.628041     0.500000
F         0.169531    0.428289    0.635330     0.500000
F         0.160604    0.426984    0.694311     0.500000
C         0.223184    0.474087    0.674993     0.500000
C         0.182082    0.481962    0.668592     0.500000
C         0.157955    0.447658    0.664181     0.500000
C         0.116984    0.455290    0.658163     0.500000
F         0.178533    0.502092    0.638142     0.500000
F         0.169228    0.501127    0.697079     0.500000
F         0.235584    0.454505    0.646619     0.500000
F         0.226282    0.454134    0.705563     0.500000
AU        1.099094    0.598953    0.710332     0.500000
S         1.155929    0.570535    0.700859     0.500000
C         1.203520    0.568927    0.708602     0.500000
C         1.222786    0.537915    0.689625     0.500000
C         1.262874    0.537637    0.697342     0.500000
C         1.282700    0.505909    0.678176     0.500000
H         1.207474    0.567791    0.737954     0.500000
H         1.214528    0.595205    0.700420     0.500000
H         1.219017    0.539855    0.660434     0.500000
H         1.211492    0.512115    0.698353     0.500000
F         1.268938    0.534838    0.733844     0.500000
F         1.278343    0.569443    0.686155     0.500000
F         1.266835    0.474646    0.689443     0.500000
F         1.276724    0.509569    0.642012     0.500000
F         1.438953    0.436716    0.659051     0.500000
F         1.390375    0.403581    0.663279     0.500000
F         1.399181    0.437199    0.615532     0.500000
F         1.400816    0.498176    0.658625     0.500000
F         1.391497    0.464028    0.706659     0.500000
C         1.324302    0.502823    0.684572     0.500000
C         1.343040    0.470444    0.664752     0.500000
C         1.384675    0.467653    0.670846     0.500000
C         1.403430    0.435295    0.651498     0.500000
F         1.337236    0.473738    0.628690     0.500000
F         1.327876    0.439175    0.676428     0.500000
F         1.340020    0.533855    0.673069     0.500000
F         1.330192    0.499048    0.720534     0.500000
AU        0.376872    0.765620    0.710332     0.500000
S         0.313272    0.765620    0.701246     0.500000
C         0.274102    0.784962    0.680775     0.500000
C         0.238781    0.766347    0.690723     0.500000
C         0.206593    0.783562    0.672440     0.500000
C         0.170431    0.764561    0.682349     0.500000
H         0.278617    0.784676    0.651483     0.500000
H         0.273731    0.813663    0.688171     0.500000
H         0.234502    0.767428    0.719889     0.500000
H         0.239759    0.737928    0.682929     0.500000
F         0.210629    0.782474    0.635568     0.500000
F         0.203945    0.819296    0.682039     0.500000
F         0.173677    0.729137    0.672832     0.500000
F         0.166790    0.766449    0.718957     0.500000
F         0.001424    0.772328    0.651611     0.500000
F         0.029814    0.721000    0.657522     0.500000
F         0.023198    0.756674    0.704115     0.500000
F         0.060517    0.810553    0.668306     0.500000
F         0.067423    0.774166    0.621526     0.500000
C         0.135356    0.779976    0.664648     0.500000
C         0.099653    0.759932    0.675415     0.500000
C         0.064592    0.775636    0.658023     0.500000
C         0.029019    0.755603    0.668336     0.500000
F         0.095737    0.761565    0.711843     0.500000
F         0.102415    0.724798    0.665316     0.500000
F         0.132067    0.815137    0.674408     0.500000
F         0.138962    0.777954    0.628246     0.500000
AU        1.154650    0.765620    0.710332     0.500000
S         1.218249    0.765620    0.701246     0.500000
C         1.261585    0.784962    0.709931     0.500000
C         1.292707    0.766347    0.690490     0.500000
C         1.328727    0.783562    0.699030     0.500000
C         1.360668    0.764561    0.679392     0.500000
H         1.265452    0.784676    0.739315     0.500000
H         1.259870    0.813663    0.702727     0.500000
H         1.288649    0.767428    0.661293     0.500000
H         1.293951    0.737928    0.698247     0.500000
F         1.335177    0.782474    0.735557     0.500000
F         1.328582    0.819296    0.689073     0.500000
F         1.360217    0.729137    0.689436     0.500000
F         1.353913    0.766449    0.643228     0.500000
F         1.531522    0.772328    0.661578     0.500000
F         1.502612    0.721000    0.663853     0.500000
F         1.495917    0.756674    0.617271     0.500000
F         1.470118    0.810553    0.662097     0.500000
F         1.476586    0.774166    0.708940     0.500000
C         1.399296    0.779976    0.686563     0.500000
C         1.430556    0.759932    0.666230     0.500000
C         1.469084    0.775636    0.673110     0.500000
C         1.500347    0.755603    0.653249     0.500000
F         1.424116    0.761565    0.630163     0.500000
F         1.430733    0.724798    0.676698     0.500000
F         1.399721    0.815137    0.676273     0.500000
F         1.406027    0.777954    0.722520     0.500000
AU        0.376872    0.876731    0.710332     0.500000
S         0.315673    0.894216    0.701589     0.500000
C         0.272717    0.906188    0.720000     0.500000
C         0.243796    0.914191    0.691848     0.500000
C         0.208138    0.924471    0.708863     0.500000
C         0.178512    0.932857    0.680246     0.500000
H         0.277140    0.929406    0.737884     0.500000
H         0.264549    0.884111    0.738015     0.500000
H         0.239384    0.890590    0.674711     0.500000
H         0.252472    0.936335    0.674421     0.500000
F         0.212317    0.954370    0.730441     0.500000
F         0.195864    0.897017    0.730580     0.500000
F         0.191276    0.959977    0.658854     0.500000
F         0.174495    0.902661    0.659533     0.500000
F         0.013771    0.980309    0.666931     0.500000
F         0.055059    0.999848    0.629661     0.500000
F         0.038984    0.943030    0.628847     0.500000
F         0.060230    0.935879    0.700088     0.500000
F         0.076779    0.993203    0.700520     0.500000
C         0.140565    0.944136    0.694876     0.500000
C         0.111666    0.952339    0.665045     0.500000
C         0.073655    0.963203    0.679724     0.500000
C         0.044876    0.971747    0.650195     0.500000
F         0.107453    0.922477    0.644177     0.500000
F         0.123886    0.979844    0.644113     0.500000
F         0.127832    0.916975    0.715910     0.500000
F         0.144586    0.974247    0.715356     0.500000
AU        1.099094    0.932286    0.710332     0.500000
S         1.155929    0.960704    0.700859     0.500000
C         1.186409    0.996980    0.709940     0.500000
C         1.222143    0.994628    0.689676     0.500000
C         1.247001    1.025763    0.698584     0.500000
C         1.283636    1.023433    0.678103     0.500000
H         1.190616    0.997604    0.739273     0.500000
H         1.172026    1.022146    0.703745     0.500000
H         1.217417    0.994626    0.660559     0.500000
H         1.235990    0.969490    0.696437     0.500000
F         1.254028    1.026610    0.735011     0.500000
F         1.230858    1.058004    0.689870     0.500000
F         1.299110    0.991202    0.686918     0.500000
F         1.275990    1.023157    0.642069     0.500000
F         1.433018    1.106547    0.659515     0.500000
F         1.429849    1.047682    0.660191     0.500000
F         1.407094    1.078007    0.614913     0.500000
F         1.361066    1.113601    0.661735     0.500000
F         1.383937    1.082530    0.707250     0.500000
C         1.311601    1.054148    0.685565     0.500000
C         1.348071    1.050601    0.664359     0.500000
C         1.375813    1.081540    0.671540     0.500000
C         1.412291    1.077991    0.650805     0.500000
F         1.340823    1.050234    0.628410     0.500000
F         1.363989    1.018897    0.673603     0.500000
F         1.296215    1.086138    0.676496     0.500000
F         1.319280    1.054298    0.721388     0.500000
AU        0.487983    0.987842    0.710332     0.500000
S         0.438417    1.027495    0.700418     0.500000
C         0.396600    1.046446    0.715242     0.500000
C         0.379908    1.073394    0.689008     0.500000
C         0.344794    1.088815    0.703004     0.500000
C         0.327681    1.116505    0.676408     0.500000
H         0.401603    1.058788    0.741721     0.500000
H         0.378271    1.023800    0.720705     0.500000
H         0.374606    1.060454    0.663035     0.500000
H         0.398557    1.095715    0.684177     0.500000
F         0.350245    1.105747    0.735571     0.500000
F         0.320239    1.061633    0.708855     0.500000
F         0.352510    1.143110    0.670780     0.500000
F         0.322057    1.098954    0.644512     0.500000
F         0.191459    1.219992    0.659006     0.500000
F         0.245185    1.235615    0.640431     0.500000
F         0.215935    1.192168    0.613151     0.500000
F         0.213560    1.153514    0.677011     0.500000
F         0.243486    1.197370    0.704237     0.500000
C         0.291384    1.134431    0.688342     0.500000
C         0.275239    1.162134    0.660698     0.500000
C         0.238762    1.179706    0.672490     0.500000
C         0.222730    1.207557    0.645279     0.500000
F         0.269564    1.144996    0.628775     0.500000
F         0.299534    1.189104    0.655560     0.500000
F         0.266673    1.107905    0.693637     0.500000
F         0.297055    1.151989    0.719994     0.500000
AU        0.987983    1.043397    0.710332     0.500000
S         1.027636    1.092964    0.700418     0.500000
C         1.040706    1.138421    0.709921     0.500000
C         1.073490    1.151457    0.688747     0.500000
C         1.083561    1.189911    0.698047     0.500000
C         1.117149    1.203344    0.676637     0.500000
H         1.045297    1.140169    0.739151     0.500000
H         1.017005    1.155492    0.704873     0.500000
H         1.068176    1.150056    0.659766     0.500000
H         1.096710    1.134179    0.694374     0.500000
F         1.090874    1.192893    0.734305     0.500000
F         1.055249    1.212741    0.690751     0.500000
F         1.144852    1.180245    0.684052     0.500000
F         1.109050    1.200618    0.640805     0.500000
F         1.218112    1.341167    0.657154     0.500000
F         1.239567    1.286267    0.656031     0.500000
F         1.204757    1.305316    0.612296     0.500000
F         1.149797    1.317767    0.661308     0.500000
F         1.185030    1.298083    0.705255     0.500000
C         1.130171    1.242730    0.684405     0.500000
C         1.164086    1.255001    0.662235     0.500000
C         1.176803    1.294503    0.669734     0.500000
C         1.210742    1.306766    0.648035     0.500000
F         1.156390    1.252354    0.626475     0.500000
F         1.191990    1.232556    0.670085     0.500000
F         1.102639    1.265651    0.676726     0.500000
F         1.138344    1.245359    0.720022     0.500000
AU        0.599094    1.098953    0.710332     0.500000
S         0.570677    1.155788    0.700859     0.500000
C         0.537305    1.188295    0.713391     0.500000
C         0.536739    1.222020    0.689824     0.500000
C         0.508269    1.248721    0.701791     0.500000
C         0.507663    1.283324    0.677933     0.500000
H         0.542072    1.195053    0.741853     0.500000
H         0.511127    1.174393    0.713117     0.500000
H         0.531387    1.214787    0.661732     0.500000
H         0.562979    1.235438    0.690706     0.500000
F         0.514159    1.258909    0.736983     0.500000
F         0.474642    1.233116    0.700470     0.500000
F         0.541284    1.298271    0.679418     0.500000
F         0.501269    1.272574    0.643284     0.500000
F         0.425828    1.433574    0.660714     0.500000
F         0.483766    1.428244    0.651211     0.500000
F         0.445285    1.402813    0.614334     0.500000
F         0.417727    1.362405    0.670776     0.500000
F         0.456986    1.387945    0.707742     0.500000
C         0.479413    1.312977    0.688123     0.500000
C         0.479869    1.347307    0.663353     0.500000
C         0.451343    1.376721    0.673327     0.500000
C         0.451887    1.411100    0.649018     0.500000
F         0.473589    1.336957    0.628734     0.500000
F         0.513059    1.362753    0.665310     0.500000
F         0.445985    1.298085    0.686338     0.500000
F         0.485893    1.323736    0.722539     0.500000
AU        0.765761    1.154508    0.710332     0.500000
S         0.765761    1.218108    0.701246     0.500000
C         0.748696    1.261809    0.712492     0.500000
C         0.765024    1.292581    0.690593     0.500000
C         0.749897    1.328925    0.701408     0.500000
C         0.766597    1.360508    0.679259     0.500000
H         0.753170    1.265628    0.741542     0.500000
H         0.719239    1.260679    0.709380     0.500000
H         0.759785    1.288586    0.661840     0.500000
H         0.794268    1.293244    0.694293     0.500000
F         0.756218    1.335301    0.737414     0.500000
F         0.713126    1.329509    0.696552     0.500000
F         0.803063    1.359334    0.684245     0.500000
F         0.759530    1.353843    0.643725     0.500000
F         0.759832    1.531507    0.662467     0.500000
F         0.810385    1.501574    0.657574     0.500000
F         0.768413    1.495659    0.616455     0.500000
F         0.720835    1.470880    0.668419     0.500000
F         0.763544    1.476553    0.709697     0.500000
C         0.753114    1.399427    0.688463     0.500000
C         0.770735    1.430308    0.665480     0.500000
C         0.756923    1.469133    0.674437     0.500000
C         0.774599    1.500016    0.651922     0.500000
F         0.763941    1.423953    0.630006     0.500000
F         0.806985    1.429767    0.670926     0.500000
F         0.716875    1.400568    0.683196     0.500000
F         0.760285    1.406065    0.723773     0.500000
AU        0.876872    1.154508    0.710332     0.500000
S         0.894357    1.215707    0.701589     0.500000
C         0.889278    1.262449    0.712401     0.500000
C         0.914124    1.287567    0.691309     0.500000
C         0.908944    1.326699    0.701726     0.500000
C         0.934375    1.352497    0.680403     0.500000
H         0.893494    1.265075    0.741621     0.500000
H         0.860749    1.269280    0.708151     0.500000
H         0.909112    1.284979    0.662356     0.500000
H         0.942300    1.280347    0.696136     0.500000
F         0.915358    1.331327    0.737982     0.500000
F         0.873905    1.337143    0.695462     0.500000
F         0.968956    1.341569    0.686783     0.500000
F         0.927147    1.347795    0.644589     0.500000
F         0.974584    1.518905    0.664268     0.500000
F         1.015352    1.476432    0.661166     0.500000
F         0.974953    1.481828    0.618431     0.500000
F         0.920495    1.471058    0.668393     0.500000
F         0.961532    1.465233    0.711314     0.500000
C         0.931532    1.393658    0.689287     0.500000
C         0.957693    1.418527    0.667163     0.500000
C         0.954518    1.459685    0.675786     0.500000
C         0.980715    1.484545    0.654133     0.500000
F         0.950809    1.414051    0.631421     0.500000
F         0.992219    1.408268    0.673997     0.500000
F         0.897171    1.404494    0.682635     0.500000
F         0.938862    1.398305    0.724881     0.500000
AU        0.654650    0.376731    0.821443     0.500000
S         0.637164    0.315532    0.830185     0.500000
C         0.642244    0.273687    0.853652     0.500000
C         0.617398    0.243668    0.840438     0.500000
C         0.622578    0.209018    0.861395     0.500000
C         0.597147    0.178281    0.848148     0.500000
H         0.638027    0.279348    0.882439     0.500000
H         0.670773    0.265939    0.851485     0.500000
H         0.622409    0.238045    0.811918     0.500000
H         0.589221    0.251951    0.843049     0.500000
F         0.616164    0.214727    0.897496     0.500000
F         0.657617    0.197238    0.858305     0.500000
F         0.562566    0.190559    0.851213     0.500000
F         0.604375    0.172767    0.812450     0.500000
F         0.556937    0.014012    0.879252     0.500000
F         0.516170    0.053917    0.864382     0.500000
F         0.556568    0.036772    0.824867     0.500000
F         0.611026    0.061100    0.869816     0.500000
F         0.569990    0.078710    0.909389     0.500000
C         0.599989    0.141255    0.868202     0.500000
C         0.573828    0.111185    0.853927     0.500000
C         0.577003    0.074088    0.873729     0.500000
C         0.550807    0.044160    0.859902     0.500000
F         0.580713    0.105475    0.818360     0.500000
F         0.539302    0.122947    0.857615     0.500000
F         0.634350    0.128990    0.864850     0.500000
F         0.592660    0.146760    0.903673     0.500000
AU        0.765761    0.376731    0.821443     0.500000
S         0.765761    0.313131    0.830528     0.500000
C         0.782826    0.274327    0.853561     0.500000
C         0.766497    0.238654    0.841154     0.500000
C         0.781624    0.206792    0.861713     0.500000
C         0.764924    0.170271    0.849293     0.500000
H         0.778351    0.278794    0.882518     0.500000
H         0.812282    0.274541    0.850257     0.500000
H         0.771737    0.234439    0.812433     0.500000
H         0.737253    0.239053    0.844892     0.500000
F         0.775304    0.210753    0.898064     0.500000
F         0.818395    0.204872    0.857215     0.500000
F         0.728459    0.172794    0.853751     0.500000
F         0.771991    0.166720    0.813314     0.500000
F         0.771689    0.001410    0.881053     0.500000
F         0.721137    0.028776    0.867974     0.500000
F         0.763109    0.022941    0.826843     0.500000
F         0.810686    0.061279    0.869790     0.500000
F         0.767978    0.067390    0.911006     0.500000
C         0.778408    0.135486    0.869026     0.500000
C         0.760787    0.099405    0.855609     0.500000
C         0.774599    0.064641    0.875078     0.500000
C         0.756923    0.028688    0.862112     0.500000
F         0.767581    0.095573    0.819775     0.500000
F         0.724537    0.101449    0.860686     0.500000
F         0.814647    0.132915    0.864290     0.500000
F         0.771237    0.139000    0.904782     0.500000
AU        0.876872    0.376731    0.821443     0.500000
S         0.894357    0.315532    0.830185     0.500000
C         0.922120    0.282883    0.852339     0.500000
C         0.915541    0.244065    0.840381     0.500000
C         0.939473    0.217566    0.860174     0.500000
C         0.932766    0.177830    0.848213     0.500000
H         0.917725    0.286132    0.881470     0.500000
H         0.950279    0.291008    0.847904     0.500000
H         0.920613    0.241265    0.811458     0.500000
H         0.887438    0.236590    0.845244     0.500000
F         0.933723    0.219869    0.896761     0.500000
F         0.975200    0.225600    0.854254     0.500000
F         0.897168    0.170459    0.854085     0.500000
F         0.939138    0.176125    0.811970     0.500000
F         0.985994    0.017207    0.878796     0.500000
F         0.929473    0.029871    0.867817     0.500000
F         0.969849    0.035343    0.825072     0.500000
F         1.006955    0.085308    0.866358     0.500000
F         0.965798    0.079905    0.909218     0.500000
C         0.955872    0.148070    0.867228     0.500000
C         0.948121    0.108505    0.854309     0.500000
C         0.971527    0.078851    0.873048     0.500000
C         0.963706    0.039398    0.860582     0.500000
F         0.954311    0.106456    0.818220     0.500000
F         0.912884    0.100733    0.860788     0.500000
F         0.991253    0.155333    0.861087     0.500000
F         0.949401    0.149711    0.903252     0.500000
AU        0.543539    0.487842    0.821443     0.500000
S         0.503885    0.438275    0.831356     0.500000
C         0.490816    0.399970    0.857612     0.500000
C         0.458031    0.379793    0.843080     0.500000
C         0.447960    0.347873    0.866455     0.500000
C         0.414373    0.327240    0.851858     0.500000
H         0.486224    0.409598    0.885265     0.500000
H         0.514517    0.382270    0.859518     0.500000
H         0.463345    0.369940    0.815789     0.500000
H         0.434811    0.397906    0.841629     0.500000
F         0.440647    0.359066    0.901071     0.500000
F         0.476273    0.323993    0.868500     0.500000
F         0.386670    0.351414    0.849818     0.500000
F         0.422471    0.315974    0.817733     0.500000
F         0.313409    0.192524    0.886882     0.500000
F         0.291955    0.242769    0.864731     0.500000
F         0.326765    0.208364    0.831686     0.500000
F         0.381725    0.215722    0.881717     0.500000
F         0.346492    0.250795    0.914712     0.500000
C         0.401351    0.293871    0.874177     0.500000
C         0.367435    0.274017    0.858432     0.500000
C         0.354719    0.240438    0.880547     0.500000
C         0.320779    0.220772    0.865233     0.500000
F         0.375131    0.262706    0.824405     0.500000
F         0.339532    0.297754    0.857045     0.500000
F         0.428883    0.269760    0.875905     0.500000
F         0.393177    0.305142    0.908065     0.500000
AU        0.987983    0.487842    0.821443     0.500000
S         1.027636    0.438275    0.831356     0.500000
C         1.066007    0.419432    0.853719     0.500000
C         1.074649    0.380684    0.842902     0.500000
C         1.107103    0.365983    0.862833     0.500000
C         1.115977    0.326338    0.852039     0.500000
H         1.061011    0.421686    0.882847     0.500000
H         1.088869    0.437551    0.848462     0.500000
H         1.080100    0.379112    0.813955     0.500000
H         1.051594    0.363201    0.848570     0.500000
F         1.101296    0.367083    0.899468     0.500000
F         1.136977    0.386861    0.855927     0.500000
F         1.085970    0.306120    0.858877     0.500000
F         1.122134    0.326039    0.815720     0.500000
F         1.226910    0.199291    0.885529     0.500000
F         1.169730    0.189048    0.875475     0.500000
F         1.204491    0.208159    0.831727     0.500000
F         1.220098    0.269800    0.870902     0.500000
F         1.184592    0.250458    0.914780     0.500000
C         1.148908    0.308284    0.871294     0.500000
C         1.156742    0.268368    0.859561     0.500000
C         1.189907    0.250518    0.878531     0.500000
C         1.197638    0.210692    0.867249     0.500000
F         1.162865    0.267687    0.823409     0.500000
F         1.127227    0.247937    0.867008     0.500000
F         1.178755    0.328311    0.864195     0.500000
F         1.142682    0.308478    0.907398     0.500000
AU        0.432427    0.598953    0.821443     0.500000
S         0.375593    0.570536    0.830915     0.500000
C         0.345112    0.546963    0.859946     0.500000
C         0.309378    0.536686    0.842323     0.500000
C         0.284520    0.517123    0.868130     0.500000
C         0.247886    0.506698    0.850348     0.500000
H         0.340906    0.564064    0.883787     0.500000
H         0.359496    0.523113    0.870089     0.500000
H         0.314105    0.519217    0.819028     0.500000
H         0.295532    0.560853    0.832649     0.500000
F         0.277494    0.538301    0.897780     0.500000
F         0.300664    0.486102    0.880505     0.500000
F         0.232412    0.537772    0.838062     0.500000
F         0.255532    0.485298    0.821355     0.500000
F         0.098503    0.429055    0.885346     0.500000
F         0.101673    0.476551    0.850568     0.500000
F         0.124427    0.425125    0.832541     0.500000
F         0.170456    0.424743    0.891355     0.500000
F         0.147585    0.476909    0.909124     0.500000
C         0.219920    0.486603    0.874747     0.500000
C         0.183450    0.476717    0.855654     0.500000
C         0.155708    0.456275    0.879961     0.500000
C         0.119231    0.446673    0.861244     0.500000
F         0.190698    0.455442    0.826674     0.500000
F         0.167533    0.507627    0.844026     0.500000
F         0.235307    0.455570    0.886685     0.500000
F         0.212241    0.507977    0.903495     0.500000
AU        1.099094    0.598953    0.821443     0.500000
S         1.155929    0.570535    0.830915     0.500000
C         1.199178    0.569947    0.852285     0.500000
C         1.222821    0.537907    0.841916     0.500000
C         1.258914    0.538566    0.860983     0.500000
C         1.283140    0.505806    0.850646     0.500000
H         1.194392    0.570861    0.881521     0.500000
H         1.212360    0.595714    0.845889     0.500000
H         1.227744    0.537806    0.812832     0.500000
H         1.209211    0.512651    0.848716     0.500000
F         1.254046    0.538334    0.897769     0.500000
F         1.277295    0.569689    0.852642     0.500000
F         1.264362    0.475227    0.858910     0.500000
F         1.288003    0.506922    0.814148     0.500000
F         1.437468    0.437064    0.882676     0.500000
F         1.389432    0.403802    0.874817     0.500000
F         1.412116    0.434163    0.829528     0.500000
F         1.401741    0.497959    0.866949     0.500000
F         1.378478    0.467083    0.912399     0.500000
C         1.321038    0.503589    0.869085     0.500000
C         1.344408    0.470123    0.857852     0.500000
C         1.382427    0.468180    0.875993     0.500000
C         1.405677    0.434768    0.865212     0.500000
F         1.349401    0.470882    0.821527     0.500000
F         1.326180    0.439573    0.866711     0.500000
F         1.339742    0.533920    0.860568     0.500000
F         1.316151    0.502343    0.905373     0.500000
AU        0.376872    0.765620    0.821443     0.500000
S         0.313272    0.765620    0.830528     0.500000
C         0.269937    0.784962    0.821844     0.500000
C         0.238814    0.766347    0.841284     0.500000
C         0.202795    0.783562    0.832745     0.500000
C         0.170853    0.764561    0.852383     0.500000
H         0.266070    0.784676    0.792459     0.500000
H         0.271652    0.813663    0.829048     0.500000
H         0.242873    0.767428    0.870482     0.500000
H         0.237571    0.737928    0.833528     0.500000
F         0.196345    0.782474    0.796218     0.500000
F         0.202940    0.819296    0.842702     0.500000
F         0.171304    0.729137    0.842338     0.500000
F         0.177608    0.766449    0.888546     0.500000
F         0.000000    0.772328    0.870196     0.500000
F         0.028910    0.721000    0.867922     0.500000
F         0.035605    0.756674    0.914504     0.500000
F         0.061404    0.810553    0.869678     0.500000
F         0.054936    0.774166    0.822835     0.500000
C         0.132225    0.779976    0.845211     0.500000
C         0.100965    0.759932    0.865544     0.500000
C         0.062437    0.775636    0.858665     0.500000
C         0.031174    0.755603    0.878526     0.500000
F         0.107405    0.761565    0.901611     0.500000
F         0.100789    0.724798    0.855076     0.500000
F         0.131801    0.815137    0.855501     0.500000
F         0.125495    0.777954    0.809255     0.500000
AU        1.154650    0.765620    0.821443     0.500000
S         1.218249    0.765620    0.830528     0.500000
C         1.257420    0.784962    0.851000     0.500000
C         1.292741    0.766347    0.841051     0.500000
C         1.324928    0.783562    0.859334     0.500000
C         1.361091    0.764561    0.849426     0.500000
H         1.252904    0.784676    0.880292     0.500000
H         1.257790    0.813663    0.843604     0.500000
H         1.297020    0.767428    0.811885     0.500000
H         1.291762    0.737928    0.848846     0.500000
F         1.320893    0.782474    0.896207     0.500000
F         1.327577    0.819296    0.849735     0.500000
F         1.357845    0.729137    0.858942     0.500000
F         1.364732    0.766449    0.812817     0.500000
F         1.530098    0.772328    0.880164     0.500000
F         1.501707    0.721000    0.874252     0.500000
F         1.508323    0.756674    0.827659     0.500000
F         1.471005    0.810553    0.863469     0.500000
F         1.464098    0.774166    0.910249     0.500000
C         1.396166    0.779976    0.867126     0.500000
C         1.431868    0.759932    0.856359     0.500000
C         1.466929    0.775636    0.873752     0.500000
C         1.502502    0.755603    0.863438     0.500000
F         1.435785    0.761565    0.819932     0.500000
F         1.429107    0.724798    0.866458     0.500000
F         1.399454    0.815137    0.857366     0.500000
F         1.392559    0.777954    0.903529     0.500000
AU        0.376872    0.876731    0.821443     0.500000
S         0.315673    0.894216    0.830185     0.500000
C         0.268709    0.883185    0.829725     0.500000
C         0.243828    0.914375    0.839783     0.500000
C         0.204483    0.903493    0.839282     0.500000
C         0.178918    0.935190    0.849708     0.500000
H         0.265066    0.860109    0.847966     0.500000
H         0.262548    0.872627    0.802721     0.500000
H         0.247439    0.936820    0.820988     0.500000
H         0.250366    0.924249    0.866785     0.500000
F         0.198572    0.875482    0.862894     0.500000
F         0.194897    0.891467    0.805525     0.500000
F         0.188994    0.946877    0.883143     0.500000
F         0.184905    0.962408    0.825618     0.500000
F         0.012401    0.972445    0.870981     0.500000
F         0.054189    0.994853    0.906012     0.500000
F         0.050922    1.011546    0.849460     0.500000
F         0.061083    0.940778    0.827864     0.500000
F         0.064762    0.924237    0.885073     0.500000
C         0.137553    0.926846    0.850391     0.500000
C         0.112929    0.959585    0.861075     0.500000
C         0.071581    0.951300    0.861339     0.500000
C         0.046951    0.983651    0.872291     0.500000
F         0.118681    0.986919    0.837310     0.500000
F         0.122321    0.970864    0.894669     0.500000
F         0.127575    0.915504    0.817013     0.500000
F         0.131627    0.899868    0.874460     0.500000
AU        1.099094    0.932286    0.821443     0.500000
S         1.155929    0.960704    0.830915     0.500000
C         1.182067    0.995960    0.850946     0.500000
C         1.222178    0.994636    0.841866     0.500000
C         1.243041    1.024833    0.859741     0.500000
C         1.284076    1.023536    0.850719     0.500000
H         1.177534    0.994534    0.880202     0.500000
H         1.169858    1.021638    0.842564     0.500000
H         1.226144    0.996674    0.812707     0.500000
H         1.233708    0.968955    0.850633     0.500000
F         1.239136    1.023115    0.896603     0.500000
F         1.229810    1.057759    0.848927     0.500000
F         1.296637    0.990622    0.861435     0.500000
F         1.287269    1.025805    0.814090     0.500000
F         1.431534    1.106198    0.882212     0.500000
F         1.428906    1.047461    0.877905     0.500000
F         1.420029    1.081043    0.830147     0.500000
F         1.361990    1.113818    0.863840     0.500000
F         1.370917    1.079474    0.911808     0.500000
C         1.308337    1.053382    0.868091     0.500000
C         1.349439    1.050923    0.858245     0.500000
C         1.373566    1.081012    0.875300     0.500000
C         1.414538    1.078518    0.865905     0.500000
F         1.352988    1.053089    0.821808     0.500000
F         1.362293    1.018499    0.869536     0.500000
F         1.295937    1.086072    0.857141     0.500000
F         1.305239    1.051003    0.904519     0.500000
AU        0.487983    0.987842    0.821443     0.500000
S         0.438417    1.027495    0.831356     0.500000
C         0.392056    1.034170    0.842915     0.500000
C         0.379944    1.073492    0.842556     0.500000
C         0.340650    1.077620    0.852831     0.500000
C         0.328141    1.117750    0.852691     0.500000
H         0.387912    1.021805    0.869532     0.500000
H         0.376002    1.017671    0.824241     0.500000
H         0.383739    1.085127    0.815716     0.500000
H         0.396169    1.089265    0.861458     0.500000
F         0.334660    1.063646    0.886682     0.500000
F         0.319143    1.058672    0.829284     0.500000
F         0.349922    1.136119    0.876019     0.500000
F         0.333861    1.130840    0.818736     0.500000
F         0.189906    1.215795    0.881789     0.500000
F         0.244198    1.232950    0.897072     0.500000
F         0.229471    1.228735    0.840039     0.500000
F         0.214528    1.156129    0.849145     0.500000
F         0.229861    1.160563    0.906637     0.500000
C         0.287968    1.125204    0.863263     0.500000
C         0.276670    1.166002    0.862766     0.500000
C         0.236410    1.173353    0.872937     0.500000
C         0.225082    1.213909    0.872844     0.500000
F         0.282296    1.179388    0.829089     0.500000
F         0.297760    1.184311    0.886514     0.500000
F         0.266383    1.107120    0.839825     0.500000
F         0.282360    1.112294    0.897088     0.500000
AU        0.987983    1.043397    0.821443     0.500000
S         1.027636    1.092964    0.831356     0.500000
C         1.036161    1.136253    0.850871     0.500000
C         1.073527    1.151474    0.842795     0.500000
C         1.079417    1.187934    0.860191     0.500000
C         1.117610    1.203564    0.852194     0.500000
H         1.031607    1.133638    0.880042     0.500000
H         1.014736    1.154410    0.841388     0.500000
H         1.077310    1.154413    0.813688     0.500000
H         1.094323    1.133040    0.852646     0.500000
F         1.075289    1.185458    0.896986     0.500000
F         1.054152    1.212218    0.848024     0.500000
F         1.142264    1.179010    0.864248     0.500000
F         1.120854    1.206249    0.815598     0.500000
F         1.216559    1.340426    0.884541     0.500000
F         1.238580    1.285797    0.882044     0.500000
F         1.218293    1.311774    0.833044     0.500000
F         1.150764    1.318229    0.864286     0.500000
F         1.171404    1.291583    0.913522     0.500000
C         1.126755    1.241100    0.869181     0.500000
C         1.165518    1.255684    0.860399     0.500000
C         1.174451    1.293381    0.877056     0.500000
C         1.213094    1.307888    0.868724     0.500000
F         1.169122    1.258428    0.824005     0.500000
F         1.190216    1.231709    0.873018     0.500000
F         1.102348    1.265512    0.856904     0.500000
F         1.123650    1.238349    0.905582     0.500000
AU        0.599094    1.098953    0.821443     0.500000
S         0.570677    1.155788    0.830915     0.500000
C         0.532962    1.181407    0.846687     0.500000
C         0.536774    1.222075    0.841724     0.500000
C         0.504309    1.242438    0.855796     0.500000
C         0.508103    1.284023    0.850971     0.500000
H         0.528990    1.174301    0.875187     0.500000
H         0.508959    1.170954    0.832787     0.500000
H         0.540115    1.228632    0.813159     0.500000
H         0.560698    1.231819    0.855939     0.500000
F         0.499266    1.235286    0.891858     0.500000
F         0.473594    1.231454    0.838133     0.500000
F         0.538811    1.294348    0.868475     0.500000
F         0.512548    1.290467    0.814975     0.500000
F         0.424343    1.431219    0.880737     0.500000
F         0.482823    1.426749    0.886710     0.500000
F         0.458219    1.423331    0.833134     0.500000
F         0.418651    1.363872    0.854971     0.500000
F         0.443967    1.367292    0.908893     0.500000
C         0.476149    1.307799    0.864926     0.500000
C         0.481237    1.349477    0.859506     0.500000
C         0.449096    1.373157    0.873094     0.500000
C         0.454134    1.414665    0.868111     0.500000
F         0.485755    1.356256    0.823748     0.500000
F         0.511364    1.360064    0.877514     0.500000
F         0.445707    1.297645    0.847247     0.500000
F         0.471852    1.301463    0.900754     0.500000
AU        0.765761    1.154508    0.821443     0.500000
S         0.765761    1.218108    0.830528     0.500000
C         0.744531    1.257686    0.848145     0.500000
C         0.765058    1.292614    0.840950     0.500000
C         0.746099    1.325165    0.856689     0.500000
C         0.767019    1.360926    0.849589     0.500000
H         0.740623    1.253207    0.877183     0.500000
H         0.717160    1.258620    0.836804     0.500000
H         0.768156    1.296873    0.811926     0.500000
H         0.792080    1.291078    0.852645     0.500000
F         0.741934    1.321160    0.893345     0.500000
F         0.712121    1.328514    0.842185     0.500000
F         0.800691    1.356986    0.863966     0.500000
F         0.770348    1.364553    0.813082     0.500000
F         0.758408    1.530098    0.879175     0.500000
F         0.809480    1.500678    0.880468     0.500000
F         0.780819    1.507941    0.829348     0.500000
F         0.721722    1.471758    0.857209     0.500000
F         0.751056    1.464191    0.908613     0.500000
C         0.749983    1.396327    0.865006     0.500000
C         0.772047    1.431607    0.857202     0.500000
C         0.754767    1.466999    0.872274     0.500000
C         0.776754    1.502150    0.864917     0.500000
F         0.775609    1.435504    0.820910     0.500000
F         0.805359    1.428157    0.872116     0.500000
F         0.716608    1.400305    0.850425     0.500000
F         0.746817    1.392732    0.901328     0.500000
AU        0.876872    1.154508    0.821443     0.500000
S         0.894357    1.215707    0.830185     0.500000
C         0.885270    1.259448    0.848397     0.500000
C         0.914156    1.287591    0.840233     0.500000
C         0.905289    1.323963    0.856517     0.500000
C         0.934781    1.352802    0.848428     0.500000
H         0.881420    1.256034    0.877586     0.500000
H         0.858748    1.267782    0.838113     0.500000
H         0.917167    1.291011    0.811089     0.500000
H         0.940194    1.278770    0.850887     0.500000
F         0.901613    1.321035    0.893327     0.500000
F         0.872938    1.336419    0.843315     0.500000
F         0.966674    1.339860    0.861520     0.500000
F         0.937557    1.355590    0.811801     0.500000
F         0.973214    1.517879    0.877429     0.500000
F         1.014481    1.475781    0.876911     0.500000
F         0.986891    1.490767    0.826895     0.500000
F         0.921349    1.471698    0.857201     0.500000
F         0.949515    1.456235    0.907477     0.500000
C         0.928520    1.391402    0.864303     0.500000
C         0.958956    1.419473    0.855468     0.500000
C         0.952444    1.458132    0.871007     0.500000
C         0.982789    1.486097    0.862623     0.500000
F         0.962036    1.422458    0.819046     0.500000
F         0.990655    1.407097    0.869107     0.500000
F         0.896915    1.404302    0.850996     0.500000
F         0.925903    1.388601    0.900738     0.500000
AU        0.543539    0.487842    0.932554     0.500000
S         0.507196    0.442413    0.959811     0.500000
C         0.491052    0.420194    0.999474     0.500000
C         0.465203    0.389026    0.992162     0.500000
C         0.452141    0.371421    1.026602     0.500000
C         0.425578    0.339663    1.019333     0.500000
H         0.478461    0.440940    1.016491     0.500000
H         0.514860    0.411239    1.014693     0.500000
H         0.478411    0.368422    0.975695     0.500000
H         0.441700    0.398655    0.977188     0.500000
F         0.434953    0.396330    1.048076     0.500000
F         0.480884    0.358299    1.046038     0.500000
F         0.397394    0.353165    0.999856     0.500000
F         0.443397    0.315101    0.998447     0.500000
F         0.331197    0.221619    1.101347     0.500000
F         0.312054    0.248577    1.052538     0.500000
F         0.357268    0.210703    1.049607     0.500000
F         0.396121    0.253229    1.097146     0.500000
F         0.350455    0.291551    1.099607     0.500000
C         0.410090    0.319686    1.053130     0.500000
C         0.383449    0.287953    1.044436     0.500000
C         0.368327    0.267764    1.078231     0.500000
C         0.341532    0.236396    1.069791     0.500000
F         0.400859    0.263315    1.023583     0.500000
F         0.354937    0.301365    1.025696     0.500000
F         0.438188    0.306048    1.072283     0.500000
F         0.392262    0.344121    1.073802     0.500000
AU        0.710205    0.432286    0.932554     0.500000
S         0.700733    0.375451    0.960971     0.500000
C         0.705186    0.346932    0.999628     0.500000
C         0.690336    0.308904    0.994491     0.500000
C         0.694494    0.286059    1.028069     0.500000
C         0.679214    0.247220    1.023064     0.500000
H         0.691872    0.360801    1.022187     0.500000
H         0.733939    0.346503    1.006819     0.500000
H         0.704315    0.295365    0.972323     0.500000
H         0.661701    0.310059    0.987559     0.500000
F         0.676953    0.301906    1.056674     0.500000
F         0.730288    0.283338    1.037419     0.500000
F         0.643781    0.250500    1.013592     0.500000
F         0.697374    0.231897    0.994915     0.500000
F         0.657888    0.098998    1.107586     0.500000
F         0.617560    0.119546    1.069811     0.500000
F         0.669942    0.100909    1.049907     0.500000
F         0.704291    0.152224    1.091916     0.500000
F         0.651218    0.171138    1.111552     0.500000
C         0.681806    0.221319    1.056285     0.500000
C         0.666035    0.182545    1.049942     0.500000
C         0.669025    0.156579    1.083036     0.500000
C         0.653066    0.118077    1.077030     0.500000
F         0.683863    0.167001    1.021915     0.500000
F         0.630551    0.185585    1.041243     0.500000
F         0.717113    0.217897    1.065449     0.500000
F         0.663618    0.236531    1.084214     0.500000
AU        0.821316    0.432286    0.932554     0.500000
S         0.830789    0.375451    0.960971     0.500000
C         0.847530    0.349758    0.998215     0.500000
C         0.842576    0.309089    0.994398     0.500000
C         0.856893    0.288707    1.026744     0.500000
C         0.851756    0.247147    1.023101     0.500000
H         0.834120    0.360064    1.022555     0.500000
H         0.876083    0.356970    1.001586     0.500000
H         0.856588    0.299282    0.970365     0.500000
H         0.813981    0.302614    0.991281     0.500000
F         0.839712    0.299925    1.057664     0.500000
F         0.893060    0.295582    1.031297     0.500000
F         0.815773    0.240904    1.018390     0.500000
F         0.869453    0.236604    0.992561     0.500000
F         0.881049    0.099987    1.107092     0.500000
F         0.832187    0.108643    1.075263     0.500000
F         0.884557    0.103973    1.048375     0.500000
F         0.909505    0.163194    1.086431     0.500000
F         0.856367    0.167947    1.113148     0.500000
C         0.865325    0.223400    1.055244     0.500000
C         0.859528    0.181751    1.050339     0.500000
C         0.873478    0.158043    1.082304     0.500000
C         0.867474    0.116613    1.077762     0.500000
F         0.876980    0.170910    1.019960     0.500000
F         0.823659    0.175277    1.046397     0.500000
F         0.901186    0.229467    1.059664     0.500000
F         0.847603    0.233824    1.085567     0.500000
AU        0.932427    0.432286    0.932554     0.500000
S         0.958655    0.379830    0.958782     0.500000
C         0.985449    0.359476    0.993356     0.500000
C         0.990010    0.318759    0.989563     0.500000
C         1.012600    0.302904    1.019646     0.500000
C         1.017221    0.261280    1.016034     0.500000
H         0.972982    0.366608    1.019283     0.500000
H         1.011617    0.373400    0.993371     0.500000
H         1.002973    0.312261    0.963875     0.500000
H         0.963654    0.305544    0.989816     0.500000
F         0.997074    0.310110    1.052571     0.500000
F         1.046325    0.318351    1.019912     0.500000
F         0.983501    0.246489    1.015598     0.500000
F         1.033126    0.254858    0.983434     0.500000
F         1.090975    0.126759    1.093706     0.500000
F         1.038001    0.122925    1.068122     0.500000
F         1.086325    0.130604    1.035059     0.500000
F         1.100676    0.194646    1.070705     0.500000
F         1.051571    0.186859    1.103692     0.500000
C         1.039876    0.241976    1.045956     0.500000
C         1.043730    0.200088    1.041170     0.500000
C         1.066721    0.180912    1.070869     0.500000
C         1.070368    0.139193    1.066472     0.500000
F         1.059491    0.193322    1.008754     0.500000
F         1.010269    0.185112    1.041479     0.500000
F         1.073484    0.256563    1.046116     0.500000
F         1.023948    0.248273    1.078343     0.500000
AU        0.432427    0.598953    0.932554     0.500000
S         0.379971    0.572725    0.958782     0.500000
C         0.347831    0.570862    0.994713     0.500000
C         0.318890    0.541972    0.990145     0.500000
C         0.292260    0.541792    1.021088     0.500000
C         0.262510    0.512452    1.016504     0.500000
H         0.335883    0.597887    0.997039     0.500000
H         0.363113    0.567075    1.019827     0.500000
H         0.331276    0.515252    0.988467     0.500000
H         0.303973    0.546444    0.965109     0.500000
F         0.275685    0.574865    1.023998     0.500000
F         0.309848    0.535583    1.053153     0.500000
F         0.245539    0.518937    0.984474     0.500000
F         0.279570    0.479884    1.014204     0.500000
F         0.122859    0.449015    1.094234     0.500000
F         0.126285    0.454452    1.035632     0.500000
F         0.160094    0.414999    1.063699     0.500000
F         0.191492    0.469948    1.103357     0.500000
F         0.157513    0.509648    1.074557     0.500000
C         0.233280    0.510078    1.046854     0.500000
C         0.203895    0.480165    1.041015     0.500000
C         0.174953    0.477567    1.071577     0.500000
C         0.145434    0.448105    1.065765     0.500000
F         0.220550    0.447579    1.038618     0.500000
F         0.186376    0.486909    1.009525     0.500000
F         0.250237    0.503341    1.078625     0.500000
F         0.216245    0.542442    1.049014     0.500000
AU        1.043539    0.543397    0.932554     0.500000
S         1.088967    0.507055    0.959811     0.500000
C         1.123127    0.501268    0.993383     0.500000
C         1.142625    0.465072    0.991726     0.500000
C         1.170975    0.461478    1.020881     0.500000
C         1.190881    0.424482    1.019453     0.500000
H         1.110160    0.505388    1.019715     0.500000
H         1.142012    0.523937    0.990534     0.500000
H         1.155821    0.461743    0.965555     0.500000
H         1.123311    0.443009    0.994813     0.500000
F         1.155493    0.465115    1.054409     0.500000
F         1.196273    0.488409    1.017605     0.500000
F         1.165329    0.398143    1.022519     0.500000
F         1.206430    0.421738    0.986172     0.500000
F         1.313883    0.334607    1.099212     0.500000
F         1.265162    0.309014    1.078074     0.500000
F         1.305281    0.331408    1.040974     0.500000
F         1.295938    0.398946    1.071456     0.500000
F         1.255136    0.376153    1.108548     0.500000
C         1.220593    0.417715    1.048652     0.500000
C         1.239834    0.380088    1.046131     0.500000
C         1.269798    0.373546    1.075075     0.500000
C         1.288802    0.336030    1.072947     0.500000
F         1.255391    0.376988    1.013066     0.500000
F         1.214629    0.353739    1.049930     0.500000
F         1.246106    0.443800    1.045331     0.500000
F         1.205059    0.420317    1.081730     0.500000
AU        0.432427    0.710064    0.932554     0.500000
S         0.375593    0.700592    0.960971     0.500000
C         0.335066    0.718470    0.980088     0.500000
C         0.309199    0.690023    0.994741     0.500000
C         0.275269    0.706574    1.010281     0.500000
C         0.248638    0.677645    1.025142     0.500000
H         0.322205    0.735043    0.959149     0.500000
H         0.343160    0.737693    1.001149     0.500000
H         0.322299    0.674217    1.015924     0.500000
H         0.301416    0.671381    0.973264     0.500000
F         0.257631    0.726472    0.984396     0.500000
F         0.283788    0.729802    1.037920     0.500000
F         0.240697    0.654758    0.997409     0.500000
F         0.266566    0.658628    1.051103     0.500000
F         0.095041    0.662329    1.100916     0.500000
F         0.113888    0.623903    1.060373     0.500000
F         0.139999    0.626253    1.113289     0.500000
F         0.158130    0.697705    1.101297     0.500000
F         0.132045    0.694944    1.047706     0.500000
C         0.212423    0.691769    1.041578     0.500000
C         0.186495    0.661635    1.056141     0.500000
C         0.150507    0.675830    1.072925     0.500000
C         0.124432    0.645979    1.087141     0.500000
F         0.204059    0.642445    1.081991     0.500000
F         0.177875    0.639188    1.028467     0.500000
F         0.220427    0.714301    1.069337     0.500000
F         0.194563    0.710558    1.015689     0.500000
AU        1.099094    0.710064    0.932554     0.500000
S         1.155929    0.700592    0.960971     0.500000
C         1.189132    0.714076    0.993270     0.500000
C         1.222641    0.690214    0.994167     0.500000
C         1.249663    0.702621    1.022142     0.500000
C         1.283892    0.678251    1.023326     0.500000
H         1.175691    0.714867    1.019675     0.500000
H         1.196025    0.742292    0.987354     0.500000
H         1.235938    0.690246    0.967836     0.500000
H         1.215095    0.662375    1.000282     0.500000
F         1.234183    0.702648    1.055868     0.500000
F         1.260419    0.737414    1.015086     0.500000
F         1.272648    0.643852    1.030128     0.500000
F         1.299037    0.679077    0.989756     0.500000
F         1.434005    0.660844    1.105372     0.500000
F         1.401647    0.614312    1.089149     0.500000
F         1.427688    0.647952    1.048190     0.500000
F         1.389415    0.707319    1.072453     0.500000
F         1.362938    0.673021    1.113474     0.500000
C         1.313540    0.688434    1.051583     0.500000
C         1.347453    0.663091    1.051772     0.500000
C         1.377227    0.673558    1.079743     0.500000
C         1.410878    0.648251    1.080323     0.500000
F         1.362762    0.663625    1.018451     0.500000
F         1.336523    0.628914    1.059289     0.500000
F         1.324863    0.722562    1.044554     0.500000
F         1.298473    0.687467    1.084964     0.500000
AU        0.432427    0.821175    0.932554     0.500000
S         0.375593    0.830648    0.960971     0.500000
C         0.329362    0.844162    0.958216     0.500000
C         0.308984    0.842397    0.993919     0.500000
C         0.269978    0.853787    0.989991     0.500000
C         0.248950    0.851876    1.026339     0.500000
H         0.316585    0.827126    0.937600     0.500000
H         0.328993    0.871524    0.946821     0.500000
H         0.321765    0.859957    1.013879     0.500000
H         0.309582    0.814913    1.004577     0.500000
F         0.252661    0.832123    0.965337     0.500000
F         0.267959    0.888557    0.977223     0.500000
F         0.251455    0.817267    1.038664     0.500000
F         0.266321    0.873958    1.050164     0.500000
F         0.093062    0.879797    1.093331     0.500000
F         0.127045    0.834914    1.110829     0.500000
F         0.142637    0.890468    1.123404     0.500000
F         0.144880    0.906465    1.050487     0.500000
F         0.129525    0.850167    1.038041     0.500000
C         0.208189    0.862772    1.025344     0.500000
C         0.188173    0.860373    1.062572     0.500000
C         0.147554    0.871666    1.061599     0.500000
C         0.127385    0.869003    1.098467     0.500000
F         0.205255    0.882213    1.086576     0.500000
F         0.189913    0.825795    1.074627     0.500000
F         0.205825    0.897308    1.013344     0.500000
F         0.190926    0.840700    1.001742     0.500000
AU        1.099094    0.821175    0.932554     0.500000
S         1.155929    0.830648    0.960971     0.500000
C         1.183428    0.855401    0.991932     0.500000
C         1.222427    0.842463    0.994117     0.500000
C         1.244372    0.864090    1.020900     0.500000
C         1.284204    0.850896    1.023399     0.500000
H         1.170072    0.854044    1.018356     0.500000
H         1.181857    0.883927    0.984029     0.500000
H         1.235405    0.844568    0.967711     0.500000
H         1.223261    0.814120    1.002199     0.500000
F         1.229213    0.861911    1.054701     0.500000
F         1.244591    0.899940    1.011371     0.500000
F         1.283406    0.815263    1.032653     0.500000
F         1.298792    0.853803    0.989698     0.500000
F         1.432027    0.883656    1.104908     0.500000
F         1.414805    0.828717    1.092237     0.500000
F         1.430326    0.865603    1.048809     0.500000
F         1.376165    0.912750    1.069343     0.500000
F         1.360418    0.875114    1.112882     0.500000
C         1.309307    0.871187    1.050590     0.500000
C         1.349130    0.856905    1.052166     0.500000
C         1.374273    0.877483    1.079050     0.500000
C         1.413831    0.863186    1.081016     0.500000
F         1.363958    0.859598    1.018732     0.500000
F         1.348560    0.821624    1.062114     0.500000
F         1.310261    0.906569    1.041127     0.500000
F         1.294835    0.868156    1.084110     0.500000
AU        0.432427    0.932286    0.932554     0.500000
S         0.379971    0.958514    0.958782     0.500000
C         0.332038    0.963927    0.959578     0.500000
C         0.318297    0.989401    0.988824     0.500000
C         0.277610    0.992740    0.988494     0.500000
C         0.263374    1.018593    1.018426     0.500000
H         0.320324    0.936849    0.962423     0.500000
H         0.323886    0.972980    0.932556     0.500000
H         0.329799    1.016319    0.985182     0.500000
H         0.326583    0.979714    1.015410     0.500000
F         0.261924    0.959467    0.993383     0.500000
F         0.266022    1.005506    0.955649     0.500000
F         0.275327    1.005607    1.050744     0.500000
F         0.278892    1.051507    1.012696     0.500000
F         0.117382    1.083455    1.082049     0.500000
F         0.162717    1.068599    1.116684     0.500000
F         0.167398    1.114599    1.079948     0.500000
F         0.154804    1.069537    1.021735     0.500000
F         0.150535    1.023160    1.059032     0.500000
C         0.221557    1.023795    1.020775     0.500000
C         0.208538    1.050030    1.051346     0.500000
C         0.166775    1.055511    1.053382     0.500000
C         0.153612    1.081296    1.083960     0.500000
F         0.223860    1.082916    1.045984     0.500000
F         0.219707    1.036839    1.083677     0.500000
F         0.209806    1.036985    0.988677     0.500000
F         0.206175    0.991060    1.026610     0.500000
AU        1.099094    0.932286    0.932554     0.500000
S         1.151550    0.958514    0.958782     0.500000
C         1.171667    0.991743    0.987394     0.500000
C         1.212727    0.989899    0.989321     0.500000
C         1.228296    1.018355    1.014110     0.500000
C         1.270231    1.016510    1.016342     0.500000
H         1.159417    0.988630    1.014204     0.500000
H         1.162405    1.018211    0.977786     0.500000
H         1.224411    0.993631    0.962494     0.500000
H         1.221232    0.963421    0.999117     0.500000
F         1.214602    1.014463    1.048379     0.500000
F         1.218773    1.052233    1.002377     0.500000
F         1.279135    0.982667    1.027804     0.500000
F         1.283182    1.020955    0.982144     0.500000
F         1.404552    1.093043    1.091637     0.500000
F         1.402626    1.034777    1.082863     0.500000
F         1.407242    1.071481    1.036830     0.500000
F         1.342590    1.103665    1.055863     0.500000
F         1.337959    1.066187    1.102059     0.500000
C         1.289204    1.044555    1.041535     0.500000
C         1.331415    1.041599    1.042915     0.500000
C         1.350347    1.069911    1.067782     0.500000
C         1.392309    1.066896    1.069560     0.500000
F         1.344656    1.045921    1.008989     0.500000
F         1.340451    1.008202    1.055040     0.500000
F         1.280516    1.078184    1.029877     0.500000
F         1.276398    1.040009    1.075558     0.500000
AU        0.543539    1.043397    0.932554     0.500000
S         0.507196    1.088826    0.959811     0.500000
C         0.463698    1.105195    0.972753     0.500000
C         0.464175    1.141994    0.991157     0.500000
C         0.426766    1.154391    1.001814     0.500000
C         0.427075    1.191896    1.020795     0.500000
H         0.451512    1.084535    0.990165     0.500000
H         0.446916    1.105467    0.948321     0.500000
H         0.475854    1.162270    0.973197     0.500000
H         0.480862    1.140960    1.015443     0.500000
F         0.411117    1.129811    1.024791     0.500000
F         0.404974    1.156704    0.971884     0.500000
F         0.448988    1.189109    1.050257     0.500000
F         0.442223    1.215887    0.997301     0.500000
F         0.321711    1.307591    1.092080     0.500000
F         0.375156    1.296158    1.114180     0.500000
F         0.369919    1.323241    1.061965     0.500000
F         0.332575    1.264419    1.035071     0.500000
F         0.338368    1.237102    1.087800     0.500000
C         0.389787    1.207210    1.033296     0.500000
C         0.391492    1.245006    1.052293     0.500000
C         0.354162    1.260445    1.064393     0.500000
C         0.355697    1.297872    1.083629     0.500000
F         0.406594    1.269150    1.029184     0.500000
F         0.412667    1.242222    1.082090     0.500000
F         0.368161    1.210213    1.003875     0.500000
F         0.374819    1.183387    1.056763     0.500000
AU        0.987983    1.043397    0.932554     0.500000
S         1.024326    1.088826    0.959811     0.500000
C         1.027974    1.128636    0.986818     0.500000
C         1.066419    1.142540    0.991485     0.500000
C         1.067985    1.176021    1.014792     0.500000
C         1.107210    1.190270    1.019819     0.500000
H         1.015417    1.122531    1.012963     0.500000
H         1.010423    1.149104    0.974504     0.500000
H         1.078223    1.149002    0.965236     0.500000
H         1.083257    1.121786    1.003939     0.500000
F         1.053716    1.169039    1.048329     0.500000
F         1.047623    1.203130    0.999740     0.500000
F         1.127011    1.162945    1.034559     0.500000
F         1.120580    1.197486    0.986260     0.500000
F         1.196052    1.315684    1.096936     0.500000
F         1.216755    1.260635    1.092866     0.500000
F         1.211472    1.293906    1.044363     0.500000
F         1.138062    1.300233    1.056559     0.500000
F         1.143604    1.266250    1.105288     0.500000
C         1.112039    1.224678    1.043777     0.500000
C         1.152008    1.237960    1.048065     0.500000
C         1.156728    1.272581    1.071675     0.500000
C         1.196456    1.285736    1.076347     0.500000
F         1.165668    1.245186    1.014806     0.500000
F         1.171706    1.211132    1.063436     0.500000
F         1.092534    1.251876    1.028873     0.500000
F         1.098856    1.217414    1.077179     0.500000
AU        0.710205    1.098953    0.932554     0.500000
S         0.700733    1.155788    0.960971     0.500000
C         0.670964    1.187481    0.981873     0.500000
C         0.689049    1.222455    0.993823     0.500000
C         0.662748    1.248125    1.011598     0.500000
C         0.681086    1.283845    1.024036     0.500000
H         0.658156    1.173565    1.004694     0.500000
H         0.648935    1.192619    0.962717     0.500000
H         0.701115    1.236171    0.970663     0.500000
H         0.710696    1.216636    1.012978     0.500000
F         0.647133    1.232099    1.041202     0.500000
F         0.635318    1.256709    0.988146     0.500000
F         0.708330    1.274752    1.047081     0.500000
F         0.695906    1.299479    0.994153     0.500000
F         0.646019    1.433342    1.101429     0.500000
F         0.696506    1.404371    1.110770     0.500000
F         0.685769    1.428862    1.058118     0.500000
F         0.624790    1.386388    1.050669     0.500000
F         0.636096    1.361503    1.103707     0.500000
C         0.656404    1.312276    1.043106     0.500000
C         0.676097    1.347761    1.055163     0.500000
C         0.651302    1.376304    1.073841     0.500000
C         0.670789    1.411518    1.086225     0.500000
F         0.691037    1.363573    1.025637     0.500000
F         0.702777    1.338956    1.078715     0.500000
F         0.629502    1.321468    1.019995     0.500000
F         0.641795    1.296732    1.072892     0.500000
AU        0.821316    1.098953    0.932554     0.500000
S         0.830789    1.155788    0.960971     0.500000
C         0.813308    1.193781    0.985023     0.500000
C         0.841290    1.222612    0.993902     0.500000
C         0.825147    1.253942    1.014507     0.500000
C         0.853629    1.283419    1.023823     0.500000
H         0.800404    1.183293    1.009558     0.500000
H         0.791079    1.204820    0.968818     0.500000
H         0.853388    1.233107    0.969131     0.500000
H         0.862976    1.211016    1.010168     0.500000
F         0.809891    1.242032    1.046168     0.500000
F         0.798090    1.269790    0.994687     0.500000
F         0.880322    1.267135    1.043273     0.500000
F         0.867984    1.295163    0.991995     0.500000
F         0.869180    1.435518    1.102517     0.500000
F         0.911133    1.394222    1.105696     0.500000
F         0.900383    1.421578    1.054476     0.500000
F         0.830004    1.396618    1.055784     0.500000
F         0.841245    1.368727    1.107319     0.500000
C         0.839924    1.316969    1.045452     0.500000
C         0.869590    1.345872    1.054218     0.500000
C         0.855756    1.379565    1.075472     0.500000
C         0.885196    1.408257    1.084594     0.500000
F         0.884154    1.357750    1.022726     0.500000
F         0.895885    1.330004    1.074239     0.500000
F         0.813575    1.333260    1.025891     0.500000
F         0.825780    1.305258    1.077155     0.500000
AU        0.654650    0.487842    1.043665     0.500000
S         0.637164    0.444128    1.087379     0.500000
C         0.628964    0.432180    1.133395     0.500000
C         0.617264    0.393130    1.138986     0.500000
C         0.610384    0.384573    1.178307     0.500000
C         0.598247    0.344761    1.184195     0.500000
H         0.608693    0.451150    1.143775     0.500000
H         0.653695    0.438397    1.148506     0.500000
H         0.638027    0.374697    1.129022     0.500000
H         0.592547    0.387693    1.123859     0.500000
F         0.584087    0.406927    1.191936     0.500000
F         0.641074    0.390433    1.198302     0.500000
F         0.567930    0.339424    1.163987     0.500000
F         0.624969    0.323138    1.170949     0.500000
F         0.552371    0.234942    1.308307     0.500000
F         0.526573    0.234787    1.255298     0.500000
F         0.582879    0.217862    1.260837     0.500000
F         0.600504    0.285066    1.288238     0.500000
F         0.543631    0.302053    1.282151     0.500000
C         0.590057    0.333032    1.223900     0.500000
C         0.577901    0.292734    1.228447     0.500000
C         0.570129    0.280957    1.268187     0.500000
C         0.557681    0.241004    1.272867     0.500000
F         0.604273    0.270905    1.215293     0.500000
F         0.547283    0.287444    1.208990     0.500000
F         0.620360    0.338110    1.243856     0.500000
F         0.563384    0.354469    1.236987     0.500000
AU        0.765761    0.487842    1.043665     0.500000
S         0.765761    0.442413    1.089093     0.500000
C         0.769025    0.429981    1.135594     0.500000
C         0.766358    0.389522    1.142594     0.500000
C         0.768952    0.380544    1.182335     0.500000
C         0.766069    0.339259    1.189696     0.500000
H         0.747867    0.444888    1.150037     0.500000
H         0.794534    0.441125    1.145777     0.500000
H         0.787967    0.375245    1.128475     0.500000
H         0.740709    0.379145    1.132407     0.500000
F         0.741968    0.397673    1.201190     0.500000
F         0.801204    0.392578    1.196158     0.500000
F         0.734034    0.327807    1.175604     0.500000
F         0.793394    0.322937    1.171150     0.500000
F         0.766944    0.225027    1.318222     0.500000
F         0.731949    0.218909    1.271175     0.500000
F         0.790451    0.213245    1.265454     0.500000
F         0.799751    0.283089    1.290215     0.500000
F         0.740585    0.288696    1.295508     0.500000
C         0.768086    0.326925    1.230007     0.500000
C         0.765019    0.285134    1.236047     0.500000
C         0.767455    0.272834    1.276310     0.500000
C         0.764066    0.231327    1.282543     0.500000
F         0.792065    0.268544    1.217654     0.500000
F         0.732831    0.273684    1.222750     0.500000
F         0.800109    0.338116    1.243850     0.500000
F         0.740813    0.343071    1.248385     0.500000
AU        0.876872    0.487842    1.043665     0.500000
S         0.894357    0.444128    1.087379     0.500000
C         0.908840    0.433436    1.132138     0.500000
C         0.915408    0.393360    1.138756     0.500000
C         0.927279    0.385801    1.177079     0.500000
C         0.933867    0.344879    1.184076     0.500000
H         0.888391    0.444263    1.150662     0.500000
H         0.933201    0.449472    1.137431     0.500000
H         0.936231    0.383245    1.120475     0.500000
H         0.890763    0.378051    1.133501     0.500000
F         0.901646    0.397770    1.201094     0.500000
F         0.958658    0.404075    1.184660     0.500000
F         0.902533    0.327212    1.176199     0.500000
F         0.959732    0.333774    1.160314     0.500000
F         0.981428    0.235398    1.307852     0.500000
F         0.939877    0.221772    1.268312     0.500000
F         0.996160    0.227365    1.251333     0.500000
F         0.996432    0.298149    1.275155     0.500000
F         0.939439    0.292363    1.291841     0.500000
C         0.945939    0.333927    1.223005     0.500000
C         0.952193    0.292449    1.228732     0.500000
C         0.964653    0.281609    1.267534     0.500000
C         0.970580    0.240351    1.273519     0.500000
F         0.977871    0.281029    1.205169     0.500000
F         0.920865    0.274769    1.221665     0.500000
F         0.977263    0.351330    1.230635     0.500000
F         0.920125    0.344867    1.246590     0.500000
AU        0.543539    0.598953    1.043665     0.500000
S         0.507196    0.571696    1.089093     0.500000
C         0.481416    0.575514    1.129693     0.500000
C         0.465031    0.540122    1.142810     0.500000
C         0.443268    0.544945    1.177012     0.500000
C         0.426300    0.508918    1.190467     0.500000
H         0.460524    0.595956    1.124782     0.500000
H         0.499192    0.587515    1.150154     0.500000
H         0.486271    0.520347    1.148094     0.500000
H         0.447344    0.528851    1.122086     0.500000
F         0.415902    0.569398    1.171516     0.500000
F         0.464697    0.558510    1.204083     0.500000
F         0.405341    0.495791    1.163183     0.500000
F         0.453981    0.485302    1.196218     0.500000
F         0.327876    0.445147    1.316223     0.500000
F         0.323770    0.426101    1.260582     0.500000
F         0.372205    0.414501    1.292313     0.500000
F         0.384299    0.487707    1.300828     0.500000
F         0.335550    0.499158    1.268386     0.500000
C         0.402899    0.510827    1.225537     0.500000
C         0.386370    0.473892    1.237983     0.500000
C         0.363339    0.475786    1.273258     0.500000
C         0.346520    0.439206    1.285595     0.500000
F         0.413675    0.450096    1.243747     0.500000
F         0.364857    0.461048    1.211220     0.500000
F         0.423916    0.523625    1.252682     0.500000
F         0.375306    0.534218    1.219729     0.500000
AU        0.987983    0.598953    1.043665     0.500000
S         1.024326    0.571696    1.089093     0.500000
C         1.045692    0.573956    1.132289     0.500000
C         1.067275    0.540399    1.142349     0.500000
C         1.084486    0.543616    1.179228     0.500000
C         1.106436    0.509346    1.189753     0.500000
H         1.024429    0.579521    1.152175     0.500000
H         1.062699    0.598233    1.132289     0.500000
H         1.088640    0.535661    1.122570     0.500000
H         1.049739    0.516696    1.142344     0.500000
F         1.058501    0.549238    1.205115     0.500000
F         1.107347    0.572812    1.180246     0.500000
F         1.083364    0.480679    1.188370     0.500000
F         1.132337    0.504642    1.163985     0.500000
F         1.202218    0.444643    1.317063     0.500000
F         1.165368    0.411142    1.285513     0.500000
F         1.213758    0.433716    1.260289     0.500000
F         1.189785    0.502729    1.275791     0.500000
F         1.140785    0.479680    1.300848     0.500000
C         1.125151    0.509602    1.227579     0.500000
C         1.146886    0.474504    1.236962     0.500000
C         1.165905    0.474982    1.274598     0.500000
C         1.187279    0.440010    1.284256     0.500000
F         1.172749    0.469473    1.211452     0.500000
F         1.123896    0.445953    1.236378     0.500000
F         1.148290    0.537984    1.228750     0.500000
F         1.099343    0.514145    1.253183     0.500000
AU        0.543539    0.710064    1.043665     0.500000
S         0.503885    0.700151    1.093231     0.500000
C         0.469788    0.716439    1.123224     0.500000
C         0.457655    0.689188    1.151565     0.500000
C         0.428597    0.704230    1.175978     0.500000
C         0.415947    0.676462    1.204890     0.500000
H         0.447082    0.725439    1.106434     0.500000
H         0.480326    0.741167    1.135719     0.500000
H         0.480496    0.681017    1.168348     0.500000
H         0.447127    0.664959    1.138470     0.500000
F         0.399074    0.714551    1.156005     0.500000
F         0.440950    0.734474    1.193549     0.500000
F         0.404011    0.646602    1.186949     0.500000
F         0.445567    0.667044    1.224663     0.500000
F         0.306161    0.659289    1.336117     0.500000
F         0.317521    0.615048    1.298845     0.500000
F         0.359359    0.633873    1.336029     0.500000
F         0.355927    0.701986    1.305586     0.500000
F         0.313966    0.682603    1.267853     0.500000
C         0.385658    0.689081    1.231432     0.500000
C         0.373809    0.660180    1.260010     0.500000
C         0.343833    0.672984    1.286766     0.500000
C         0.331665    0.644249    1.315038     0.500000
F         0.403097    0.650520    1.279856     0.500000
F         0.361179    0.630663    1.242310     0.500000
F         0.397739    0.718616    1.249434     0.500000
F         0.356175    0.698307    1.211736     0.500000
AU        0.987983    0.710064    1.043665     0.500000
S         1.027636    0.700151    1.093231     0.500000
C         1.044980    0.713862    1.136111     0.500000
C         1.074273    0.689250    1.151252     0.500000
C         1.087740    0.701894    1.187659     0.500000
C         1.117552    0.676767    1.203368     0.500000
H         1.021868    0.715812    1.154566     0.500000
H         1.054679    0.741703    1.133040     0.500000
H         1.097251    0.688128    1.132790     0.500000
H         1.063910    0.661807    1.154227     0.500000
F         1.059723    0.703362    1.211947     0.500000
F         1.101654    0.736179    1.185024     0.500000
F         1.103311    0.642879    1.205564     0.500000
F         1.145230    0.676164    1.179067     0.500000
F         1.219662    0.658412    1.340500     0.500000
F         1.195296    0.612170    1.313233     0.500000
F         1.237085    0.643861    1.286089     0.500000
F         1.194300    0.704864    1.291197     0.500000
F         1.152066    0.672528    1.318230     0.500000
C         1.133215    0.687135    1.241162     0.500000
C         1.163116    0.661011    1.255854     0.500000
C         1.179021    0.671651    1.293433     0.500000
C         1.208524    0.645582    1.308371     0.500000
F         1.190830    0.660121    1.231852     0.500000
F         1.148874    0.627361    1.258824     0.500000
F         1.147611    0.720743    1.238798     0.500000
F         1.105680    0.687589    1.265326     0.500000
AU        0.543539    0.821175    1.043665     0.500000
S         0.503885    0.831088    1.093231     0.500000
C         0.463819    0.851078    1.111193     0.500000
C         0.457431    0.843415    1.151113     0.500000
C         0.423059    0.860663    1.164818     0.500000
C         0.416274    0.852792    1.205548     0.500000
H         0.441201    0.841542    1.094581     0.500000
H         0.465499    0.880183    1.105836     0.500000
H         0.479938    0.853614    1.167223     0.500000
H         0.455673    0.814342    1.155694     0.500000
F         0.393872    0.848300    1.145522     0.500000
F         0.424385    0.897440    1.160162     0.500000
F         0.415270    0.816210    1.209641     0.500000
F         0.445311    0.865751    1.224147     0.500000
F         0.304091    0.884532    1.331945     0.500000
F         0.331291    0.832502    1.326599     0.500000
F         0.362119    0.880588    1.341592     0.500000
F         0.342060    0.913530    1.277637     0.500000
F         0.311329    0.864666    1.262537     0.500000
C         0.381227    0.869085    1.222502     0.500000
C         0.375564    0.860392    1.263547     0.500000
C         0.340742    0.877042    1.280535     0.500000
C         0.334756    0.868203    1.321269     0.500000
F         0.404348    0.873114    1.282379     0.500000
F         0.373777    0.824011    1.267702     0.500000
F         0.382457    0.905498    1.218634     0.500000
F         0.352369    0.856066    1.204065     0.500000
AU        0.987983    0.821175    1.043665     0.500000
S         1.027636    0.831088    1.093231     0.500000
C         1.039011    0.855492    1.133264     0.500000
C         1.074048    0.843422    1.151145     0.500000
C         1.082202    0.864703    1.185018     0.500000
C         1.117878    0.852387    1.203524     0.500000
H         1.015988    0.852978    1.151760     0.500000
H         1.039852    0.884209    1.125967     0.500000
H         1.096693    0.846674    1.132523     0.500000
H         1.072456    0.814864    1.158304     0.500000
F         1.054521    0.861089    1.209466     0.500000
F         1.085089    0.900832    1.177121     0.500000
F         1.114570    0.816469    1.210935     0.500000
F         1.144974    0.856711    1.178945     0.500000
F         1.217592    0.886046    1.339513     0.500000
F         1.209066    0.831143    1.319802     0.500000
F         1.239845    0.869751    1.287406     0.500000
F         1.180434    0.914919    1.284581     0.500000
F         1.149429    0.875553    1.316971     0.500000
C         1.128784    0.872395    1.239048     0.500000
C         1.164871    0.859021    1.256691     0.500000
C         1.175930    0.879326    1.291958     0.500000
C         1.211615    0.865919    1.309846     0.500000
F         1.192082    0.863128    1.232449     0.500000
F         1.161472    0.823438    1.264834     0.500000
F         1.132329    0.908072    1.231507     0.500000
F         1.101874    0.867955    1.263510     0.500000
AU        0.543539    0.932286    1.043665     0.500000
S         0.507196    0.959543    1.089093     0.500000
C         0.465004    0.978377    1.102972     0.500000
C         0.464414    0.991968    1.141805     0.500000
C         0.428043    1.007307    1.152224     0.500000
C         0.427198    1.021082    1.191929     0.500000
H         0.444355    0.957599    1.098456     0.500000
H         0.458425    0.999989    1.083782     0.500000
H         0.484736    1.013010    1.145595     0.500000
H         0.470841    0.969959    1.160342     0.500000
F         0.401600    0.981579    1.148232     0.500000
F         0.419151    1.035590    1.129929     0.500000
F         0.436297    0.992723    1.213583     0.500000
F         0.453277    1.046909    1.195071     0.500000
F         0.322184    1.093948    1.306956     0.500000
F         0.361631    1.052883    1.322224     0.500000
F         0.379795    1.106262    1.304671     0.500000
F         0.346171    1.096154    1.238753     0.500000
F         0.328297    1.042091    1.256579     0.500000
C         0.390717    1.037225    1.205704     0.500000
C         0.391196    1.050687    1.245840     0.500000
C         0.354839    1.067184    1.259420     0.500000
C         0.355019    1.080303    1.299433     0.500000
F         0.417115    1.076394    1.249349     0.500000
F         0.399495    1.022385    1.267614     0.500000
F         0.381900    1.065604    1.184275     0.500000
F         0.364840    1.011466    1.202689     0.500000
AU        0.987983    0.932286    1.043665     0.500000
S         1.024326    0.959543    1.089093     0.500000
C         1.029280    0.991520    1.124877     0.500000
C         1.066658    0.992127    1.142070     0.500000
C         1.069261    1.019383    1.172352     0.500000
C         1.107333    1.020020    1.190158     0.500000
H         1.008260    0.985449    1.144872     0.500000
H         1.021933    1.018047    1.113878     0.500000
H         1.087106    0.998780    1.121877     0.500000
H         1.073236    0.965527    1.152956     0.500000
F         1.044199    1.011834    1.198656     0.500000
F         1.061801    1.053438    1.159676     0.500000
F         1.114321    0.985983    1.202350     0.500000
F         1.131633    1.028066    1.163667     0.500000
F         1.196526    1.098470    1.314492     0.500000
F         1.203230    1.041116    1.302612     0.500000
F         1.221348    1.081690    1.263717     0.500000
F         1.151658    1.108046    1.258572     0.500000
F         1.133533    1.066687    1.297573     0.500000
C         1.112969    1.047049    1.222078     0.500000
C         1.151712    1.046668    1.239142     0.500000
C         1.157406    1.073987    1.270759     0.500000
C         1.195778    1.073499    1.288094     0.500000
F         1.176189    1.054588    1.213006     0.500000
F         1.158534    1.013029    1.252021     0.500000
F         1.106273    1.080903    1.209774     0.500000
F         1.088877    1.038926    1.248456     0.500000
AU        0.654650    1.043397    1.043665     0.500000
S         0.637164    1.087111    1.087379     0.500000
C         0.602642    1.113137    1.108788     0.500000
C         0.616274    1.138639    1.138061     0.500000
C         0.585967    1.159726    1.155481     0.500000
C         0.599687    1.185708    1.185541     0.500000
H         0.582761    1.093959    1.119533     0.500000
H         0.588316    1.127810    1.087386     0.500000
H         0.635566    1.157858    1.126722     0.500000
H         0.630230    1.123391    1.159087     0.500000
F         0.561151    1.136579    1.170494     0.500000
F         0.568030    1.179873    1.130017     0.500000
F         0.617576    1.165262    1.210399     0.500000
F         0.623840    1.208705    1.169894     0.500000
F         0.543243    1.301179    1.299773     0.500000
F         0.587294    1.263977    1.312062     0.500000
F         0.595052    1.306867    1.272216     0.500000
F         0.539357    1.278877    1.231075     0.500000
F         0.532001    1.235406    1.271278     0.500000
C         0.570520    1.208657    1.205636     0.500000
C         0.585641    1.234366    1.235682     0.500000
C         0.556498    1.257573    1.255444     0.500000
C         0.571311    1.282945    1.285609     0.500000
F         0.609790    1.257383    1.220451     0.500000
F         0.602834    1.214084    1.260922     0.500000
F         0.552976    1.229169    1.180862     0.500000
F         0.546600    1.185747    1.221296     0.500000
AU        0.765761    1.043397    1.043665     0.500000
S         0.765761    1.088826    1.089093     0.500000
C         0.741671    1.120600    1.116252     0.500000
C         0.765330    1.142445    1.141867     0.500000
C         0.743577    1.168638    1.164393     0.500000
C         0.767565    1.190922    1.190754     0.500000
H         0.720917    1.105407    1.130981     0.500000
H         0.726590    1.138158    1.097733     0.500000
H         0.785409    1.157803    1.126666     0.500000
H         0.779871    1.124402    1.160098     0.500000
F         0.718133    1.150420    1.184335     0.500000
F         0.725294    1.192338    1.142481     0.500000
F         0.785628    1.166950    1.212086     0.500000
F         0.792220    1.209131    1.170321     0.500000
F         0.757457    1.312920    1.311514     0.500000
F         0.795051    1.267710    1.315795     0.500000
F         0.803102    1.309049    1.274399     0.500000
F         0.736205    1.293083    1.245281     0.500000
F         0.728498    1.251090    1.286962     0.500000
C         0.747782    1.218671    1.215651     0.500000
C         0.773062    1.240418    1.241734     0.500000
C         0.753290    1.268422    1.266293     0.500000
C         0.778232    1.289896    1.292560     0.500000
F         0.797799    1.258641    1.221709     0.500000
F         0.790561    1.216734    1.263572     0.500000
F         0.730081    1.242640    1.194333     0.500000
F         0.723370    1.200502    1.236051     0.500000
AU        0.876872    1.043397    1.043665     0.500000
S         0.894357    1.087111    1.087379     0.500000
C         0.882519    1.122409    1.118060     0.500000
C         0.914418    1.138804    1.138227     0.500000
C         0.902862    1.168265    1.164019     0.500000
C         0.935306    1.185014    1.184846     0.500000
H         0.862459    1.111219    1.136793     0.500000
H         0.867822    1.142887    1.102463     0.500000
H         0.933770    1.150295    1.119159     0.500000
H         0.928446    1.117960    1.153656     0.500000
F         0.878710    1.154911    1.188826     0.500000
F         0.885613    1.195449    1.145593     0.500000
F         0.952179    1.157615    1.202752     0.500000
F         0.958603    1.198521    1.159710     0.500000
F         0.972299    1.304375    1.302969     0.500000
F         1.000597    1.252703    1.300788     0.500000
F         1.008333    1.292494    1.257844     0.500000
F         0.935285    1.290253    1.242451     0.500000
F         0.927809    1.249749    1.285621     0.500000
C         0.926402    1.215576    1.212556     0.500000
C         0.959933    1.231555    1.232871     0.500000
C         0.951022    1.262373    1.260244     0.500000
C         0.984210    1.278145    1.280809     0.500000
F         0.983389    1.245052    1.208120     0.500000
F         0.976415    1.204539    1.251376     0.500000
F         0.909879    1.242903    1.194595     0.500000
F         0.903341    1.202063    1.237613     0.500000
AU        0.710205    0.598953    1.099221     0.500000
S         0.700733    0.570535    1.156055     0.500000
C         0.690117    0.573765    1.203006     0.500000
C         0.690066    0.537765    1.222933     0.500000
C         0.680617    0.542010    1.262421     0.500000
C         0.680343    0.505305    1.282906     0.500000
H         0.663821    0.587292    1.205016     0.500000
H         0.709436    0.592796    1.214974     0.500000
H         0.716606    0.525019    1.221109     0.500000
H         0.670528    0.519414    1.210652     0.500000
F         0.647160    0.557647    1.266043     0.500000
F         0.704975    0.564451    1.279131     0.500000
F         0.656209    0.483371    1.265806     0.500000
F         0.713925    0.490586    1.279366     0.500000
F         0.652694    0.438358    1.438862     0.500000
F         0.635882    0.410767    1.389550     0.500000
F         0.693300    0.416673    1.402027     0.500000
F         0.685803    0.490981    1.401896     0.500000
F         0.627909    0.484746    1.388879     0.500000
C         0.670559    0.506482    1.323944     0.500000
C         0.670603    0.468869    1.343375     0.500000
C         0.661223    0.470155    1.384470     0.500000
C         0.660868    0.432793    1.403888     0.500000
F         0.703904    0.453885    1.339993     0.500000
F         0.646065    0.447143    1.326947     0.500000
F         0.694794    0.528096    1.340910     0.500000
F         0.637101    0.521000    1.327410     0.500000
AU        0.821316    0.598953    1.099221     0.500000
S         0.830789    0.570535    1.156055     0.500000
C         0.832461    0.573169    1.204198     0.500000
C         0.842307    0.537822    1.222819     0.500000
C         0.843016    0.541484    1.263473     0.500000
C         0.852885    0.505419    1.282679     0.500000
H         0.806068    0.583183    1.213234     0.500000
H         0.851580    0.594762    1.211041     0.500000
H         0.868879    0.528617    1.213914     0.500000
H         0.822808    0.516869    1.215743     0.500000
F         0.809918    0.552684    1.275968     0.500000
F         0.867746    0.567197    1.273637     0.500000
F         0.828200    0.480230    1.272088     0.500000
F         0.886004    0.495146    1.270245     0.500000
F         0.875855    0.438160    1.439258     0.500000
F         0.850509    0.407758    1.395567     0.500000
F         0.907915    0.421319    1.392735     0.500000
F         0.891017    0.494001    1.395856     0.500000
F         0.833057    0.480042    1.398286     0.500000
C         0.854079    0.506023    1.324862     0.500000
C         0.864095    0.469081    1.342952     0.500000
C         0.865677    0.469847    1.385086     0.500000
C         0.875275    0.433101    1.403272     0.500000
F         0.897022    0.458512    1.330739     0.500000
F         0.839173    0.444057    1.333118     0.500000
F         0.878866    0.530906    1.335291     0.500000
F         0.821086    0.516111    1.337188     0.500000
AU        0.654650    0.710064    1.154776     0.500000
S         0.637164    0.701321    1.215975     0.500000
C         0.614427    0.717123    1.255482     0.500000
C         0.616900    0.691771    1.287797     0.500000
C         0.596962    0.706274    1.320336     0.500000
C         0.599230    0.680418    1.353401     0.500000
H         0.586246    0.722167    1.247807     0.500000
H         0.625542    0.743874    1.261767     0.500000
H         0.645097    0.687560    1.295368     0.500000
H         0.605514    0.665457    1.280925     0.500000
F         0.561167    0.711650    1.312158     0.500000
F         0.610889    0.739167    1.330342     0.500000
F         0.585506    0.647908    1.342875     0.500000
F         0.634927    0.675925    1.361307     0.500000
F         0.547350    0.665789    1.516689     0.500000
F         0.549991    0.619379    1.480432     0.500000
F         0.599686    0.645769    1.498358     0.500000
F         0.576898    0.709869    1.467539     0.500000
F         0.526963    0.682860    1.449180     0.500000
C         0.579229    0.692612    1.388507     0.500000
C         0.582260    0.665678    1.421030     0.500000
C         0.562603    0.678107    1.456208     0.500000
C         0.565207    0.651276    1.488557     0.500000
F         0.617708    0.660921    1.429141     0.500000
F         0.567939    0.633465    1.410966     0.500000
F         0.593150    0.724819    1.399054     0.500000
F         0.543711    0.696935    1.380633     0.500000
AU        0.765761    0.710064    1.154776     0.500000
S         0.765761    0.700978    1.218376     0.500000
C         0.753918    0.716102    1.262631     0.500000
C         0.765980    0.691035    1.292950     0.500000
C         0.755003    0.704931    1.329734     0.500000
C         0.767090    0.679357    1.360828     0.500000
H         0.724539    0.720017    1.262859     0.500000
H         0.765277    0.743293    1.265830     0.500000
H         0.795315    0.687952    1.292622     0.500000
H         0.754186    0.664266    1.289261     0.500000
F         0.718150    0.708882    1.331531     0.500000
F         0.769835    0.738389    1.335791     0.500000
F         0.752299    0.646288    1.354218     0.500000
F         0.803743    0.676283    1.358800     0.500000
F         0.761726    0.663606    1.531976     0.500000
F         0.756285    0.617140    1.496103     0.500000
F         0.807918    0.645518    1.500117     0.500000
F         0.775220    0.708530    1.476916     0.500000
F         0.723262    0.679522    1.472548     0.500000
C         0.756834    0.690957    1.400089     0.500000
C         0.769549    0.664332    1.430450     0.500000
C         0.759634    0.676182    1.469688     0.500000
C         0.771888    0.649642    1.499997     0.500000
F         0.806027    0.660986    1.428684     0.500000
F         0.754297    0.631540    1.424446     0.500000
F         0.771831    0.723732    1.406665     0.500000
F         0.720368    0.693868    1.402099     0.500000
AU        0.876872    0.710064    1.154776     0.500000
S         0.894357    0.701321    1.215975     0.500000
C         0.894303    0.716211    1.261864     0.500000
C         0.915044    0.691788    1.287679     0.500000
C         0.913857    0.705446    1.326133     0.500000
C         0.934849    0.680520    1.352685     0.500000
H         0.865944    0.718994    1.270020     0.500000
H         0.905049    0.743837    1.262027     0.500000
H         0.943301    0.689835    1.279443     0.500000
H         0.903731    0.664566    1.287162     0.500000
F         0.878727    0.707985    1.337814     0.500000
F         0.928473    0.739481    1.328147     0.500000
F         0.920109    0.646872    1.350129     0.500000
F         0.969690    0.678849    1.340840     0.500000
F         0.976406    0.665479    1.518863     0.500000
F         0.963294    0.618649    1.485538     0.500000
F         1.012967    0.649015    1.475642     0.500000
F         0.972827    0.710597    1.462442     0.500000
F         0.922771    0.679589    1.472081     0.500000
C         0.935112    0.691925    1.393318     0.500000
C         0.956552    0.665969    1.418989     0.500000
C         0.957127    0.677636    1.459510     0.500000
C         0.978106    0.651748    1.485255     0.500000
F         0.991306    0.664020    1.407443     0.500000
F         0.941520    0.632583    1.417144     0.500000
F         0.950053    0.725286    1.395783     0.500000
F         0.900452    0.693441    1.405094     0.500000
AU        0.654650    0.821175    1.154776     0.500000
S         0.637164    0.829918    1.215975     0.500000
C         0.609163    0.851816    1.248592     0.500000
C         0.616702    0.840885    1.287538     0.500000
C         0.592078    0.859938    1.313945     0.500000
C         0.599518    0.848759    1.353778     0.500000
H         0.581060    0.846214    1.241019     0.500000
H         0.612466    0.881008    1.244653     0.500000
H         0.644605    0.847204    1.294724     0.500000
H         0.613051    0.811809    1.290789     0.500000
F         0.556580    0.852440    1.306154     0.500000
F         0.596280    0.896693    1.311222     0.500000
F         0.595435    0.812222    1.355871     0.500000
F         0.634701    0.856931    1.361012     0.500000
F         0.545524    0.878524    1.514299     0.500000
F         0.562135    0.824891    1.496326     0.500000
F         0.602120    0.868034    1.501545     0.500000
F         0.564669    0.908951    1.451533     0.500000
F         0.524637    0.865037    1.446136     0.500000
C         0.575322    0.866610    1.383394     0.500000
C         0.583808    0.854476    1.423056     0.500000
C         0.559877    0.872655    1.452640     0.500000
C         0.567933    0.860440    1.492125     0.500000
F         0.618811    0.862415    1.430585     0.500000
F         0.579049    0.818208    1.425507     0.500000
F         0.579673    0.902935    1.381416     0.500000
F         0.540354    0.858345    1.376240     0.500000
AU        0.765761    0.821175    1.154776     0.500000
S         0.765761    0.830261    1.218376     0.500000
C         0.748447    0.853048    1.257215     0.500000
C         0.765775    0.841629    1.292747     0.500000
C         0.749928    0.861476    1.324710     0.500000
C         0.767389    0.849809    1.361124     0.500000
H         0.719149    0.848572    1.257524     0.500000
H         0.751688    0.882112    1.252377     0.500000
H         0.794803    0.846832    1.292116     0.500000
H         0.762018    0.812698    1.297014     0.500000
F         0.713383    0.855391    1.326812     0.500000
F         0.754653    0.898056    1.320762     0.500000
F         0.762618    0.813445    1.364433     0.500000
F         0.803508    0.856582    1.358568     0.500000
F         0.759828    0.880781    1.530098     0.500000
F         0.768906    0.826644    1.508597     0.500000
F         0.810448    0.868188    1.502622     0.500000
F         0.762511    0.910779    1.464334     0.500000
F         0.720845    0.868469    1.470155     0.500000
C         0.752773    0.868421    1.396069     0.500000
C         0.771157    0.855760    1.432042     0.500000
C         0.756801    0.874690    1.466883     0.500000
C         0.774721    0.861965    1.502801     0.500000
F         0.807174    0.862306    1.429820     0.500000
F         0.765843    0.819690    1.435876     0.500000
F         0.757825    0.904561    1.392800     0.500000
F         0.716880    0.861545    1.398645     0.500000
AU        0.876872    0.821175    1.154776     0.500000
S         0.894357    0.829918    1.215975     0.500000
C         0.889039    0.853149    1.257922     0.500000
C         0.914846    0.840884    1.287531     0.500000
C         0.908974    0.861157    1.322476     0.500000
C         0.935137    0.848634    1.352900     0.500000
H         0.860758    0.849802    1.266136     0.500000
H         0.891973    0.882092    1.252236     0.500000
H         0.942809    0.844968    1.279074     0.500000
H         0.911267    0.812097    1.292806     0.500000
F         0.874140    0.856472    1.334379     0.500000
F         0.913864    0.897549    1.317208     0.500000
F         0.930038    0.812464    1.357564     0.500000
F         0.969464    0.854026    1.340671     0.500000
F         0.974580    0.878981    1.517496     0.500000
F         0.975438    0.824649    1.494631     0.500000
F         1.015402    0.864594    1.477465     0.500000
F         0.960598    0.909201    1.453285     0.500000
F         0.920444    0.868495    1.470339     0.500000
C         0.931204    0.867610    1.390392     0.500000
C         0.958100    0.854061    1.420148     0.500000
C         0.954401    0.873345    1.457469     0.500000
C         0.980832    0.859750    1.487296     0.500000
F         0.992410    0.859227    1.408269     0.500000
F         0.952630    0.818202    1.425463     0.500000
F         0.936577    0.903546    1.385692     0.500000
F         0.897095    0.862107    1.402580     0.500000
AU        0.710205    0.932286    1.099221     0.500000
S         0.700733    0.960704    1.156055     0.500000
C         0.673006    0.987280    1.185251     0.500000
C         0.689423    0.994595    1.222265     0.500000
C         0.664744    1.016879    1.245951     0.500000
C         0.681279    1.024303    1.283877     0.500000
H         0.646963    0.973313    1.187524     0.500000
H         0.666934    1.012480    1.170872     0.500000
H         0.715006    1.009007    1.219449     0.500000
H         0.695025    0.969152    1.236071     0.500000
F         0.632249    0.999565    1.250571     0.500000
F         0.657490    1.049505    1.229858     0.500000
F         0.688483    0.991648    1.299295     0.500000
F         0.713191    1.041932    1.278604     0.500000
F         0.646759    1.103219    1.432704     0.500000
F         0.675355    1.051712    1.430509     0.500000
F         0.701214    1.100781    1.410239     0.500000
F         0.646053    1.109502    1.360649     0.500000
F         0.620348    1.059664    1.381033     0.500000
C         0.657859    1.046881    1.310765     0.500000
C         0.675634    1.053606    1.348596     0.500000
C         0.652362    1.076520    1.375275     0.500000
C         0.669729    1.083011    1.413082     0.500000
F         0.707491    1.071106    1.343715     0.500000
F         0.682177    1.021190    1.364419     0.500000
F         0.650988    1.079450    1.295455     0.500000
F         0.626190    1.029246    1.316088     0.500000
AU        0.821316    0.932286    1.099221     0.500000
S         0.830789    0.960704    1.156055     0.500000
C         0.815350    0.990158    1.191006     0.500000
C         0.841664    0.994624    1.222323     0.500000
C         0.827143    1.019522    1.251235     0.500000
C         0.853821    1.024065    1.283400     0.500000
H         0.789210    0.979669    1.200237     0.500000
H         0.809078    1.016180    1.178273     0.500000
H         0.867279    1.005622    1.212680     0.500000
H         0.847305    0.968431    1.234630     0.500000
F         0.795008    1.006516    1.264473     0.500000
F         0.820261    1.053090    1.237028     0.500000
F         0.860475    0.990485    1.296970     0.500000
F         0.885270    1.037470    1.269679     0.500000
F         0.869920    1.104208    1.434683     0.500000
F         0.889982    1.049457    1.426000     0.500000
F         0.915828    1.095080    1.398836     0.500000
F         0.851267    1.111782    1.365209     0.500000
F         0.825497    1.065376    1.392457     0.500000
C         0.841378    1.049033    1.315070     0.500000
C         0.869127    1.052723    1.346830     0.500000
C         0.856816    1.078009    1.378254     0.500000
C         0.884136    1.081521    1.410103     0.500000
F         0.900609    1.066001    1.333505     0.500000
F         0.875285    1.019460    1.360960     0.500000
F         0.835061    1.082481    1.301518     0.500000
F         0.810174    1.035590    1.328775     0.500000
